REMARK  8 active torsions:
REMARK  status: ('A' for Active; 'I' for Inactive)
REMARK       I    between atoms: C_2  and  N_3 
REMARK    1  A    between atoms: C_2  and  O_24 
REMARK    2  A    between atoms: N_3  and  C_4 
REMARK    3  A    between atoms: C_4  and  C_5 
REMARK    4  A    between atoms: C_4  and  C_15 
REMARK    5  A    between atoms: C_5  and  C_6 
REMARK       I    between atoms: C_15  and  N_17 
REMARK    6  A    between atoms: N_17  and  C_18 
REMARK    7  A    between atoms: O_24  and  C_25 
REMARK    8  A    between atoms: C_25  and  C_26 
ROOT
HETATM    1  C   UNL     1       1.085  -0.652   0.435  1.00  0.00     0.183 C 
ENDROOT
BRANCH   1   2
HETATM    2  N   UNL     1       1.572  -0.674  -0.953  1.00  0.00    -0.323 N 
HETATM    3  C   UNL     1       0.921  -1.184  -2.031  1.00  0.00     0.361 C 
HETATM    4  O   UNL     1       1.459  -1.313  -3.121  1.00  0.00    -0.238 OA
HETATM    5  H   UNL     1       2.549  -0.471  -1.124  1.00  0.00     0.165 HD
BRANCH   3   6
HETATM    6  O   UNL     1      -0.370  -1.480  -1.758  1.00  0.00    -0.299 OA
BRANCH   6   7
HETATM    7  C   UNL     1      -1.121  -1.978  -2.871  1.00  0.00     0.219 C 
BRANCH   7   8
HETATM    8  C   UNL     1      -2.581  -1.829  -2.524  1.00  0.00    -0.034 A 
HETATM    9  C   UNL     1      -3.116  -2.488  -1.407  1.00  0.00     0.009 A 
HETATM   10  C   UNL     1      -4.462  -2.336  -1.070  1.00  0.00     0.001 A 
HETATM   11  C   UNL     1      -5.287  -1.525  -1.847  1.00  0.00     0.000 A 
HETATM   12  C   UNL     1      -4.768  -0.868  -2.961  1.00  0.00     0.001 A 
HETATM   13  C   UNL     1      -3.422  -1.019  -3.299  1.00  0.00     0.009 A 
ENDBRANCH   7   8
ENDBRANCH   6   7
ENDBRANCH   3   6
ENDBRANCH   1   2
BRANCH   1  14
HETATM   14  C   UNL     1       2.243  -0.730   1.449  1.00  0.00     0.076 C 
BRANCH  14  15
HETATM   15  C   UNL     1       3.087  -1.959   1.286  1.00  0.00    -0.028 A 
HETATM   16  C   UNL     1       2.755  -3.238   1.691  1.00  0.00     0.096 A 
HETATM   17  N   UNL     1       3.782  -4.077   1.352  1.00  0.00    -0.365 N 
HETATM   18  C   UNL     1       4.789  -3.372   0.735  1.00  0.00     0.042 A 
HETATM   19  H   UNL     1       3.807  -5.072   1.529  1.00  0.00     0.165 HD
HETATM   20  C   UNL     1       6.015  -3.815   0.224  1.00  0.00     0.030 A 
HETATM   21  C   UNL     1       4.386  -2.037   0.687  1.00  0.00    -0.002 A 
HETATM   22  C   UNL     1       6.858  -2.861  -0.354  1.00  0.00     0.002 A 
HETATM   23  C   UNL     1       6.489  -1.520  -0.414  1.00  0.00     0.001 A 
HETATM   24  C   UNL     1       5.259  -1.095   0.102  1.00  0.00     0.014 A 
ENDBRANCH  14  15
ENDBRANCH   1  14
BRANCH   1  25
HETATM   25  C   UNL     1       0.229   0.605   0.734  1.00  0.00     0.241 C 
HETATM   26  O   UNL     1       0.283   1.208   1.804  1.00  0.00    -0.271 OA
HETATM   27  N   UNL     1      -0.712   0.906  -0.231  1.00  0.00    -0.355 N 
HETATM   28  H   UNL     1      -0.891   0.189  -0.926  1.00  0.00     0.162 HD
BRANCH  27  29
HETATM   29  C   UNL     1      -1.744   1.910  -0.028  1.00  0.00     0.084 C 
HETATM   30  C   UNL     1      -2.908   1.332   0.795  1.00  0.00     0.025 C 
HETATM   31  C   UNL     1      -4.256   1.992   0.497  1.00  0.00     0.002 C 
HETATM   32  C   UNL     1      -4.095   3.445   0.074  1.00  0.00     0.000 C 
HETATM   33  C   UNL     1      -3.254   3.578  -1.197  1.00  0.00     0.002 C 
HETATM   34  C   UNL     1      -2.227   2.457  -1.371  1.00  0.00     0.025 C 
ENDBRANCH  27  29
ENDBRANCH   1  25
TORSDOF 8
