#

@<TRIPOS>MOLECULE
complex.pdb
 55 57 0 0 0
SMALL
USER_CHARGES

@<TRIPOS>ATOM
      1 N         -10.3030   -8.0410   -1.4680 N.am      1 LIG        -0.2863
      2 C          -9.4450   -7.7980   -2.5140 C.2       1 LIG         0.3036
      3 O          -8.5790   -8.6000   -2.8430 O.2       1 LIG        -0.2526
      4 N1         -9.6430   -6.5650   -3.1320 N.am      1 LIG        -0.2742
      5 C1        -10.9950   -6.0110   -3.2590 C.3       1 LIG         0.0210
      6 C2        -11.0060   -4.5320   -3.6270 C.3       1 LIG        -0.0113
      7 C3        -10.2240   -4.3140   -4.8890 C.ar      1 LIG        -0.0369
      8 C4        -10.5880   -3.3050   -5.7930 C.ar      1 LIG        -0.0127
      9 C5         -9.8650   -3.1090   -6.9720 C.ar      1 LIG         0.1618
     10 C6         -8.7290   -3.8840   -7.2110 C.ar      1 LIG         0.1618
     11 C7         -8.3650   -4.8980   -6.3200 C.ar      1 LIG        -0.0108
     12 C8         -9.1010   -5.1180   -5.1440 C.ar      1 LIG        -0.0157
     13 C9         -8.6420   -6.1890   -4.1520 C.3       1 LIG         0.0783
     14 H         -10.4460   -7.2080   -0.9120 H         1 LIG         0.1511
     15 C10        -7.3320   -5.7760   -3.4700 C.ar      1 LIG        -0.0226
     16 C11        -6.1570   -6.5320   -3.6200 C.ar      1 LIG        -0.0565
     17 C12        -4.9720   -6.1420   -2.9910 C.ar      1 LIG        -0.0614
     18 C13        -4.9450   -4.9920   -2.2070 C.ar      1 LIG        -0.0617
     19 C14        -6.0980   -4.2250   -2.0560 C.ar      1 LIG        -0.0614
     20 C15        -7.2830   -4.6130   -2.6840 C.ar      1 LIG        -0.0565
     21 C16       -10.1190   -9.2600   -0.6730 C.3       1 LIG         0.1188
     22 C17       -11.1950  -10.2730   -1.0440 C.3       1 LIG        -0.0362
     23 C18       -10.1780   -9.0000    0.8430 C.2       1 LIG         0.3271
     24 O1        -11.1870   -9.1540    1.5230 O.2       1 LIG        -0.2488
     25 O2         -9.0000   -8.4950    1.3130 O.3       1 LIG        -0.4666
     26 C19        -8.7140   -8.8430    2.6670 C.3       1 LIG         0.0817
     27 O3         -7.9410   -3.7030   -8.3180 O.3       1 LIG        -0.4914
     28 C20        -7.2510   -2.4550   -8.2150 C.3       1 LIG         0.0790
     29 O4        -10.3280   -2.1000   -7.7750 O.3       1 LIG        -0.4914
     30 C21       -10.9630   -1.0350   -7.0710 C.3       1 LIG         0.0790
     31 HC2       -11.5107   -6.1347   -2.3067 H         1 LIG         0.0468
     32 HC3       -11.5331   -6.5684   -4.0257 H         1 LIG         0.0468
     33 HC4       -12.0347   -4.2050   -3.7783 H         1 LIG         0.0328
     34 HC5       -10.5576   -3.9543   -2.8187 H         1 LIG         0.0328
     35 HC        -11.4362   -2.6730   -5.5751 H         1 LIG         0.0658
     36 HC1        -7.5087   -5.5189   -6.5383 H         1 LIG         0.0659
     37 HC6        -8.4279   -7.0868   -4.7318 H         1 LIG         0.0601
     38 HC7        -6.1701   -7.4244   -4.2282 H         1 LIG         0.0621
     39 HC8        -4.0764   -6.7331   -3.1131 H         1 LIG         0.0618
     40 HC9        -4.0303   -4.6945   -1.7159 H         1 LIG         0.0618
     41 HC10       -6.0752   -3.3295   -1.4527 H         1 LIG         0.0618
     42 HC11       -8.1722   -4.0120   -2.5640 H         1 LIG         0.0621
     43 HC12       -9.1450   -9.6861   -0.9133 H         1 LIG         0.0612
     44 HC13       -6.6247   -2.3118   -9.0955 H         1 LIG         0.0660
     45 HC14       -6.6264   -2.4581   -7.3217 H         1 LIG         0.0660
     46 HC15       -7.9757   -1.6435   -8.1487 H         1 LIG         0.0660
     47 HC16      -11.0600  -11.1797   -0.4542 H         1 LIG         0.0253
     48 HC17      -12.1783   -9.8497   -0.8391 H         1 LIG         0.0253
     49 HC18      -11.1169  -10.5141   -2.1041 H         1 LIG         0.0253
     50 HC19      -11.0484   -0.1668   -7.7245 H         1 LIG         0.0660
     51 HC20      -11.9572   -1.3507   -6.7549 H         1 LIG         0.0660
     52 HC21      -10.3692   -0.7735   -6.1952 H         1 LIG         0.0660
     53 HC22       -7.7617   -8.4027    2.9625 H         1 LIG         0.0661
     54 HC23       -9.5053   -8.4645    3.3141 H         1 LIG         0.0661
     55 HC24       -8.6570   -9.9276    2.7591 H         1 LIG         0.0661
@<TRIPOS>BOND
     1    1    2 am 
     2    1   14 1  
     3    1   21 1  
     4    2    3 2  
     5    2    4 am 
     6    4    5 1  
     7    4   13 1  
     8    5    6 1  
     9    6    7 1  
    10    7    8 2  
    11    7   12 1  
    12    8    9 1  
    13    9   10 2  
    14    9   29 1  
    15   10   11 1  
    16   10   27 1  
    17   11   12 2  
    18   12   13 1  
    19   13   15 1  
    20   15   16 2  
    21   15   20 1  
    22   16   17 1  
    23   17   18 2  
    24   18   19 1  
    25   19   20 2  
    26   21   22 1  
    27   21   23 1  
    28   23   24 2  
    29   23   25 1  
    30   25   26 1  
    31   27   28 1  
    32   29   30 1  
    33   31    5 1  
    34   32    5 1  
    35   33    6 1  
    36   34    6 1  
    37   35    8 1  
    38   36   11 1  
    39   37   13 1  
    40   38   16 1  
    41   39   17 1  
    42   40   18 1  
    43   41   19 1  
    44   42   20 1  
    45   43   21 1  
    46   44   28 1  
    47   45   28 1  
    48   46   28 1  
    49   47   22 1  
    50   48   22 1  
    51   49   22 1  
    52   50   30 1  
    53   51   30 1  
    54   52   30 1  
    55   53   26 1  
    56   54   26 1  
    57   55   26 1  
