REMARK  10 active torsions:
REMARK  status: ('A' for Active; 'I' for Inactive)
REMARK    1  A    between atoms: C_2  and  C_3 
REMARK    2  A    between atoms: C_3  and  O_4 
REMARK    3  A    between atoms: O_4  and  C_5 
REMARK    4  A    between atoms: C_5  and  C_7 
REMARK    5  A    between atoms: C_7  and  C_8 
REMARK    6  A    between atoms: C_7  and  N_17 
REMARK    7  A    between atoms: C_8  and  S_9 
REMARK    8  A    between atoms: S_9  and  C_10 
REMARK    9  A    between atoms: C_10  and  C_11 
REMARK       I    between atoms: N_17  and  C_18 
REMARK   10  A    between atoms: C_18  and  C_20 
ROOT
HETATM    1  C   UNL     1       0.763  -2.069   0.395  1.00  0.00     0.194 C 
ENDROOT
BRANCH   1   2
HETATM    2  C   UNL     1       1.533  -3.247  -0.204  1.00  0.00     0.282 C 
HETATM    3  O   UNL     1       1.206  -3.842  -1.226  1.00  0.00    -0.263 OA
BRANCH   2   4
HETATM    4  O   UNL     1       2.678  -3.475   0.500  1.00  0.00    -0.320 OA
BRANCH   4   5
HETATM    5  C   UNL     1       3.466  -4.567   0.008  1.00  0.00     0.178 C 
BRANCH   5   6
HETATM    6  C   UNL     1       4.700  -4.694   0.892  1.00  0.00     0.022 C 
HETATM    7  C   UNL     1       5.604  -5.828   0.442  1.00  0.00     0.007 C 
ENDBRANCH   5   6
ENDBRANCH   4   5
ENDBRANCH   2   4
ENDBRANCH   1   2
BRANCH   1   8
HETATM    8  C   UNL     1       1.281  -0.800  -0.294  1.00  0.00     0.109 C 
BRANCH   8   9
HETATM    9  S   UNL     1       0.447   0.712   0.305  1.00  0.00    -0.162 SA
BRANCH   9  10
HETATM   10  C   UNL     1       1.153   1.898  -0.879  1.00  0.00     0.112 C 
BRANCH  10  11
HETATM   11  C   UNL     1       0.596   3.284  -0.678  1.00  0.00    -0.049 A 
HETATM   12  C   UNL     1       1.304   4.238   0.067  1.00  0.00     0.008 A 
HETATM   13  C   UNL     1       0.784   5.520   0.254  1.00  0.00     0.001 A 
HETATM   14  C   UNL     1      -0.452   5.859  -0.293  1.00  0.00     0.000 A 
HETATM   15  C   UNL     1      -1.170   4.918  -1.026  1.00  0.00     0.001 A 
HETATM   16  C   UNL     1      -0.651   3.636  -1.217  1.00  0.00     0.008 A 
ENDBRANCH  10  11
ENDBRANCH   9  10
ENDBRANCH   8   9
ENDBRANCH   1   8
BRANCH   1  17
HETATM   17  N   UNL     1      -0.671  -2.277   0.172  1.00  0.00    -0.342 N 
HETATM   18  C   UNL     1      -1.399  -3.084   1.018  1.00  0.00     0.252 C 
HETATM   19  O   UNL     1      -0.914  -3.642   1.995  1.00  0.00    -0.268 OA
HETATM   20  H   UNL     1      -1.021  -2.146  -0.769  1.00  0.00     0.163 HD
BRANCH  18  21
HETATM   21  C   UNL     1      -2.825  -3.293   0.649  1.00  0.00     0.032 A 
HETATM   22  C   UNL     1      -3.560  -2.304  -0.018  1.00  0.00     0.017 A 
HETATM   23  C   UNL     1      -4.899  -2.533  -0.344  1.00  0.00     0.001 A 
HETATM   24  C   UNL     1      -5.505  -3.741  -0.000  1.00  0.00     0.000 A 
HETATM   25  C   UNL     1      -4.780  -4.720   0.679  1.00  0.00     0.001 A 
HETATM   26  C   UNL     1      -3.443  -4.496   1.009  1.00  0.00     0.017 A 
ENDBRANCH  18  21
ENDBRANCH   1  17
TORSDOF 10
