REMARK  10 active torsions:
REMARK  status: ('A' for Active; 'I' for Inactive)
REMARK    1  A    between atoms: C_2  and  C_7 
REMARK    2  A    between atoms: C_7  and  S_8 
REMARK    3  A    between atoms: S_8  and  C_9 
REMARK    4  A    between atoms: C_9  and  C_10 
REMARK       I    between atoms: C_10  and  N_11 
REMARK    5  A    between atoms: N_11  and  C_16 
REMARK    6  A    between atoms: C_13  and  S_18 
REMARK    7  A    between atoms: S_18  and  N_19 
REMARK    8  A    between atoms: N_19  and  C_20 
REMARK    9  A    between atoms: C_20  and  C_21 
REMARK   10  A    between atoms: C_21  and  C_22 
ROOT
HETATM    1  C   UNL     1       3.427  -1.927  -2.540  1.00  0.00     0.027 A 
HETATM    2  C   UNL     1       3.775  -0.715  -3.139  1.00  0.00     0.079 A 
HETATM    3  C   UNL     1       2.275  -2.005  -1.750  1.00  0.00     0.031 A 
HETATM    4  C   UNL     1       2.977   0.415  -2.966  1.00  0.00     0.027 A 
HETATM    5  C   UNL     1       1.466  -0.881  -1.562  1.00  0.00     0.034 A 
HETATM    6  C   UNL     1       1.826   0.327  -2.178  1.00  0.00     0.031 A 
ENDROOT
BRANCH   5   7
HETATM    7  N   UNL     1       0.289  -0.872  -0.783  1.00  0.00    -0.326 N 
HETATM    8  C   UNL     1      -0.299  -1.937  -0.124  1.00  0.00     0.236 C 
HETATM    9  O   UNL     1       0.159  -3.077  -0.055  1.00  0.00    -0.272 OA
HETATM   10  H   UNL     1      -0.219   0.014  -0.784  1.00  0.00     0.169 HD
BRANCH   8  11
HETATM   11  C   UNL     1      -1.517  -1.596   0.690  1.00  0.00     0.243 C 
BRANCH  11  12
HETATM   12  S   UNL     1      -2.700  -0.692  -0.252  1.00  0.00     0.156 S 
HETATM   13  O   UNL     1      -2.085   0.596  -0.536  1.00  0.00    -0.227 OA
HETATM   14  O   UNL     1      -3.171  -1.552  -1.320  1.00  0.00    -0.227 OA
BRANCH  12  15
HETATM   15  C   UNL     1      -4.019  -0.463   0.938  1.00  0.00     0.179 C 
BRANCH  15  16
HETATM   16  C   UNL     1      -5.121   0.353   0.321  1.00  0.00    -0.044 A 
HETATM   17  C   UNL     1      -6.136  -0.267  -0.422  1.00  0.00     0.008 A 
HETATM   18  C   UNL     1      -7.158   0.491  -0.995  1.00  0.00     0.001 A 
HETATM   19  C   UNL     1      -7.176   1.874  -0.835  1.00  0.00     0.000 A 
HETATM   20  C   UNL     1      -6.170   2.502  -0.104  1.00  0.00     0.001 A 
HETATM   21  C   UNL     1      -5.146   1.747   0.470  1.00  0.00     0.008 A 
ENDBRANCH  15  16
ENDBRANCH  12  15
ENDBRANCH  11  12
ENDBRANCH   8  11
ENDBRANCH   5   7
BRANCH   2  22
HETATM   22  S   UNL     1       5.239  -0.629  -4.134  1.00  0.00     0.258 S 
HETATM   23  O   UNL     1       5.210  -1.745  -5.053  1.00  0.00    -0.201 OA
HETATM   24  O   UNL     1       5.424   0.732  -4.587  1.00  0.00    -0.201 OA
BRANCH  22  25
HETATM   25  N   UNL     1       6.446  -0.967  -3.016  1.00  0.00    -0.315 N 
HETATM   26  H   UNL     1       7.110  -1.659  -3.360  1.00  0.00     0.172 HD
BRANCH  25  27
HETATM   27  C   UNL     1       6.938   0.119  -2.166  1.00  0.00     0.132 C 
BRANCH  27  28
HETATM   28  C   UNL     1       7.652  -0.488  -0.960  1.00  0.00     0.020 C 
BRANCH  28  29
HETATM   29  C   UNL     1       8.296   0.557  -0.048  1.00  0.00    -0.003 C 
HETATM   30  C   UNL     1       7.288   1.462   0.643  1.00  0.00     0.005 C 
ENDBRANCH  28  29
ENDBRANCH  27  28
ENDBRANCH  25  27
ENDBRANCH  22  25
ENDBRANCH   2  22
TORSDOF 10
