REMARK  7 active torsions:
REMARK  status: ('A' for Active; 'I' for Inactive)
REMARK    1  A    between atoms: O_2  and  C_3 
REMARK    2  A    between atoms: C_6  and  C_7 
REMARK    3  A    between atoms: C_7  and  C_8 
REMARK    4  A    between atoms: C_8  and  N_9 
REMARK       I    between atoms: N_9  and  C_10 
REMARK    5  A    between atoms: C_10  and  C_12 
REMARK    6  A    between atoms: C_18  and  C_19 
REMARK    7  A    between atoms: C_33  and  O_34 
ROOT
HETATM    1  C   UNL     1       0.097   1.216  -0.776  1.00  0.00     0.034 A 
HETATM    2  C   UNL     1       0.730   2.450  -0.650  1.00  0.00     0.018 A 
HETATM    3  C   UNL     1      -0.014   3.569  -0.284  1.00  0.00     0.022 A 
HETATM    4  C   UNL     1      -1.396   3.469  -0.048  1.00  0.00     0.032 A 
HETATM    5  S   UNL     1      -2.245   4.975   0.337  1.00  0.00    -0.083 SA
HETATM    6  C   UNL     1      -3.599   4.330   1.175  1.00  0.00     0.074 C 
HETATM    7  C   UNL     1      -4.186   4.934   2.226  1.00  0.00     0.036 C 
HETATM    8  C   UNL     1      -4.249   3.080   0.664  1.00  0.00     0.265 C 
HETATM    9  O   UNL     1      -5.454   2.904   0.873  1.00  0.00    -0.267 OA
HETATM   10  N   UNL     1      -3.467   2.120   0.018  1.00  0.00    -0.316 N 
HETATM   11  C   UNL     1      -4.145   0.897  -0.403  1.00  0.00     0.159 C 
HETATM   12  C   UNL     1      -2.053   2.237  -0.190  1.00  0.00     0.055 A 
HETATM   13  C   UNL     1      -1.286   1.115  -0.563  1.00  0.00     0.048 A 
ENDROOT
BRANCH   1  14
HETATM   14  C   UNL     1       0.909   0.037  -1.176  1.00  0.00     0.251 C 
HETATM   15  N   UNL     1       0.512  -1.178  -0.651  1.00  0.00    -0.357 N 
HETATM   16  H   UNL     1      -0.082  -1.164   0.167  1.00  0.00     0.162 HD
HETATM   17  O   UNL     1       1.885   0.180  -1.902  1.00  0.00    -0.268 OA
BRANCH  15  18
HETATM   18  C   UNL     1       1.306  -2.370  -0.896  1.00  0.00     0.127 C 
BRANCH  18  19
HETATM   19  C   UNL     1       0.570  -3.637  -0.461  1.00  0.00     0.058 C 
BRANCH  19  20
HETATM   20  C   UNL     1       1.350  -4.891  -0.766  1.00  0.00    -0.054 A 
HETATM   21  C   UNL     1       0.981  -5.710  -1.837  1.00  0.00     0.010 A 
HETATM   22  C   UNL     1       1.698  -6.876  -2.120  1.00  0.00     0.040 A 
HETATM   23  C   UNL     1       2.801  -7.237  -1.341  1.00  0.00     0.101 A 
HETATM   24  C   UNL     1       3.193  -6.409  -0.271  1.00  0.00     0.102 A 
HETATM   25  C   UNL     1       2.460  -5.249   0.013  1.00  0.00     0.046 A 
BRANCH  23  26
HETATM   26  O   UNL     1       3.562  -8.361  -1.547  1.00  0.00    -0.353 OA
HETATM   27  C   UNL     1       3.164  -9.245  -2.584  1.00  0.00     0.210 C 
ENDBRANCH  23  26
BRANCH  24  28
HETATM   28  O   UNL     1       4.287  -6.826   0.447  1.00  0.00    -0.353 OA
HETATM   29  C   UNL     1       4.874  -5.895   1.344  1.00  0.00     0.210 C 
ENDBRANCH  24  28
ENDBRANCH  19  20
ENDBRANCH  18  19
ENDBRANCH  15  18
ENDBRANCH   1  14
BRANCH   7  30
HETATM   30  C   UNL     1      -3.753   6.188   2.859  1.00  0.00    -0.029 A 
HETATM   31  C   UNL     1      -2.723   6.139   3.811  1.00  0.00     0.012 A 
HETATM   32  C   UNL     1      -2.281   7.304   4.437  1.00  0.00     0.001 A 
HETATM   33  C   UNL     1      -2.864   8.526   4.118  1.00  0.00     0.001 A 
HETATM   34  C   UNL     1      -3.890   8.586   3.174  1.00  0.00     0.007 A 
HETATM   35  C   UNL     1      -4.350   7.422   2.538  1.00  0.00    -0.052 A 
HETATM   36  C   UNL     1      -5.451   7.525   1.517  1.00  0.00     0.049 C 
ENDBRANCH   7  30
TORSDOF 7
