REMARK  10 active torsions:
REMARK  status: ('A' for Active; 'I' for Inactive)
REMARK       I    between atoms: C_2  and  N_3 
REMARK    1  A    between atoms: C_2  and  O_26 
REMARK    2  A    between atoms: N_3  and  C_4 
REMARK    3  A    between atoms: C_4  and  C_5 
REMARK    4  A    between atoms: C_4  and  C_15 
REMARK    5  A    between atoms: C_5  and  C_6 
REMARK       I    between atoms: C_15  and  N_17 
REMARK    6  A    between atoms: N_17  and  C_18 
REMARK    7  A    between atoms: C_18  and  C_19 
REMARK    8  A    between atoms: C_19  and  C_20 
REMARK    9  A    between atoms: O_26  and  C_27 
REMARK   10  A    between atoms: C_27  and  C_28 
ROOT
HETATM    1  C   UNL     1       1.504   0.833  -0.516  1.00  0.00     0.183 C 
ENDROOT
BRANCH   1   2
HETATM    2  N   UNL     1       1.620   1.398   0.836  1.00  0.00    -0.323 N 
HETATM    3  C   UNL     1       2.037   0.755   1.957  1.00  0.00     0.361 C 
HETATM    4  O   UNL     1       2.192   1.333   3.023  1.00  0.00    -0.238 OA
HETATM    5  H   UNL     1       1.471   2.391   0.960  1.00  0.00     0.165 HD
BRANCH   3   6
HETATM    6  O   UNL     1       2.217  -0.571   1.757  1.00  0.00    -0.299 OA
BRANCH   6   7
HETATM    7  C   UNL     1       2.639  -1.289   2.921  1.00  0.00     0.219 C 
BRANCH   7   8
HETATM    8  C   UNL     1       2.519  -2.758   2.605  1.00  0.00    -0.034 A 
HETATM    9  C   UNL     1       1.597  -3.565   3.286  1.00  0.00     0.009 A 
HETATM   10  C   UNL     1       1.478  -4.921   2.973  1.00  0.00     0.001 A 
HETATM   11  C   UNL     1       2.279  -5.482   1.981  1.00  0.00     0.000 A 
HETATM   12  C   UNL     1       3.200  -4.690   1.298  1.00  0.00     0.001 A 
HETATM   13  C   UNL     1       3.320  -3.334   1.608  1.00  0.00     0.009 A 
ENDBRANCH   7   8
ENDBRANCH   6   7
ENDBRANCH   3   6
ENDBRANCH   1   2
BRANCH   1  14
HETATM   14  C   UNL     1       1.732   1.898  -1.603  1.00  0.00     0.076 C 
BRANCH  14  15
HETATM   15  C   UNL     1       3.098   2.516  -1.541  1.00  0.00    -0.028 A 
HETATM   16  C   UNL     1       4.271   1.949  -2.001  1.00  0.00     0.096 A 
HETATM   17  N   UNL     1       5.297   2.819  -1.749  1.00  0.00    -0.365 N 
HETATM   18  C   UNL     1       4.820   3.952  -1.134  1.00  0.00     0.042 A 
HETATM   19  H   UNL     1       6.268   2.661  -1.982  1.00  0.00     0.165 HD
HETATM   20  C   UNL     1       5.502   5.094  -0.696  1.00  0.00     0.030 A 
HETATM   21  C   UNL     1       3.440   3.797  -0.998  1.00  0.00    -0.002 A 
HETATM   22  C   UNL     1       4.750   6.110  -0.101  1.00  0.00     0.002 A 
HETATM   23  C   UNL     1       3.371   5.988   0.046  1.00  0.00     0.001 A 
HETATM   24  C   UNL     1       2.705   4.840  -0.398  1.00  0.00     0.014 A 
ENDBRANCH  14  15
ENDBRANCH   1  14
BRANCH   1  25
HETATM   25  C   UNL     1       0.123   0.165  -0.721  1.00  0.00     0.240 C 
HETATM   26  O   UNL     1      -0.560   0.335  -1.729  1.00  0.00    -0.271 OA
HETATM   27  N   UNL     1      -0.225  -0.740   0.262  1.00  0.00    -0.359 N 
HETATM   28  H   UNL     1       0.529  -1.053   0.868  1.00  0.00     0.162 HD
BRANCH  27  29
HETATM   29  C   UNL     1      -1.384  -1.602   0.128  1.00  0.00     0.127 C 
BRANCH  29  30
HETATM   30  C   UNL     1      -1.824  -2.155   1.482  1.00  0.00     0.058 C 
BRANCH  30  31
HETATM   31  C   UNL     1      -2.988  -3.104   1.356  1.00  0.00    -0.057 A 
HETATM   32  C   UNL     1      -4.304  -2.624   1.398  1.00  0.00     0.007 A 
HETATM   33  C   UNL     1      -5.380  -3.502   1.262  1.00  0.00     0.001 A 
HETATM   34  C   UNL     1      -5.152  -4.864   1.080  1.00  0.00     0.000 A 
HETATM   35  C   UNL     1      -3.846  -5.351   1.030  1.00  0.00     0.001 A 
HETATM   36  C   UNL     1      -2.768  -4.475   1.166  1.00  0.00     0.007 A 
ENDBRANCH  30  31
ENDBRANCH  29  30
ENDBRANCH  27  29
ENDBRANCH   1  25
TORSDOF 10
