REMARK  8 active torsions:
REMARK  status: ('A' for Active; 'I' for Inactive)
REMARK    1  A    between atoms: C_2  and  O_3 
REMARK    2  A    between atoms: O_3  and  C_4 
REMARK    3  A    between atoms: C_7  and  N_8 
REMARK       I    between atoms: N_8  and  C_9 
REMARK    4  A    between atoms: C_9  and  C_11 
REMARK    5  A    between atoms: C_11  and  C_12 
REMARK    6  A    between atoms: C_12  and  C_13 
REMARK    7  A    between atoms: C_12  and  C_20 
REMARK    8  A    between atoms: C_13  and  C_14 
ROOT
HETATM    1  C   UNL     1      -2.137  -0.886  -0.342  1.00  0.00     0.114 C 
ENDROOT
BRANCH   1   2
HETATM    2  C   UNL     1      -0.836  -1.125   0.412  1.00  0.00     0.222 C 
HETATM    3  N   UNL     1       0.144  -1.677  -0.398  1.00  0.00    -0.327 N 
HETATM    4  H   UNL     1      -0.106  -1.863  -1.359  1.00  0.00     0.169 HD
HETATM    5  O   UNL     1      -0.750  -0.919   1.617  1.00  0.00    -0.273 OA
BRANCH   3   6
HETATM    6  C   UNL     1       1.461  -2.028  -0.033  1.00  0.00     0.034 A 
HETATM    7  C   UNL     1       2.255  -2.636  -1.013  1.00  0.00     0.032 A 
HETATM    8  C   UNL     1       3.576  -3.016  -0.739  1.00  0.00     0.039 A 
HETATM    9  C   UNL     1       4.121  -2.788   0.522  1.00  0.00     0.068 A 
HETATM   10  C   UNL     1       3.333  -2.177   1.498  1.00  0.00     0.039 A 
HETATM   11  C   UNL     1       2.012  -1.799   1.226  1.00  0.00     0.032 A 
BRANCH   9  12
HETATM   12  O   UNL     1       5.389  -3.104   0.923  1.00  0.00    -0.352 OA
BRANCH  12  13
HETATM   13  C   UNL     1       6.229  -3.755  -0.028  1.00  0.00     0.171 C 
HETATM   14  C   UNL     1       7.571  -4.014   0.632  1.00  0.00     0.034 C 
ENDBRANCH  12  13
ENDBRANCH   9  12
ENDBRANCH   3   6
ENDBRANCH   1   2
BRANCH   1  15
HETATM   15  C   UNL     1      -2.862   0.385   0.132  1.00  0.00     0.056 C 
BRANCH  15  16
HETATM   16  C   UNL     1      -4.329   0.355  -0.353  1.00  0.00     0.050 C 
BRANCH  16  17
HETATM   17  C   UNL     1      -5.205   1.420   0.267  1.00  0.00    -0.057 A 
HETATM   18  C   UNL     1      -5.560   2.565  -0.458  1.00  0.00     0.007 A 
HETATM   19  C   UNL     1      -6.367   3.547   0.121  1.00  0.00     0.001 A 
HETATM   20  C   UNL     1      -6.825   3.393   1.428  1.00  0.00     0.000 A 
HETATM   21  C   UNL     1      -6.475   2.260   2.158  1.00  0.00     0.001 A 
HETATM   22  C   UNL     1      -5.668   1.278   1.582  1.00  0.00     0.007 A 
ENDBRANCH  16  17
ENDBRANCH  15  16
BRANCH  15  23
HETATM   23  C   UNL     1      -2.142   1.601  -0.375  1.00  0.00     0.057 A 
HETATM   24  O   UNL     1      -1.549   2.383   0.570  1.00  0.00    -0.327 OA
HETATM   25  C   UNL     1      -0.955   3.415  -0.079  1.00  0.00     0.142 A 
HETATM   26  C   UNL     1      -1.151   3.308  -1.435  1.00  0.00     0.027 A 
HETATM   27  C   UNL     1      -1.917   2.133  -1.630  1.00  0.00     0.035 A 
ENDBRANCH  15  23
ENDBRANCH   1  15
TORSDOF 8
