REMARK  7 active torsions:
REMARK  status: ('A' for Active; 'I' for Inactive)
REMARK    1  A    between atoms: C_2  and  C_3 
REMARK    2  A    between atoms: C_3  and  C_4 
REMARK    3  A    between atoms: C_4  and  C_5 
REMARK    4  A    between atoms: C_5  and  N_6 
REMARK    5  A    between atoms: C_22  and  C_23 
REMARK    6  A    between atoms: C_26  and  O_27 
REMARK    7  A    between atoms: C_30  and  O_31 
ROOT
HETATM    1  N   UNL     1      -1.970  -1.093   1.149  1.00  0.00    -0.342 N 
HETATM    2  C   UNL     1      -0.876  -1.985   1.510  1.00  0.00     0.228 C 
HETATM    3  C   UNL     1       0.335  -1.221   2.033  1.00  0.00     0.239 C 
HETATM    4  O   UNL     1       1.043  -1.690   2.923  1.00  0.00    -0.271 OA
HETATM    5  N   UNL     1       0.637  -0.053   1.337  1.00  0.00    -0.323 N 
HETATM    6  C   UNL     1      -0.167   0.314   0.138  1.00  0.00     0.185 C 
HETATM    7  C   UNL     1      -0.140   1.831  -0.203  1.00  0.00     0.076 C 
HETATM    8  C   UNL     1       1.168   2.459   0.102  1.00  0.00    -0.018 A 
HETATM    9  C   UNL     1       2.103   1.830   0.891  1.00  0.00     0.045 A 
HETATM   10  N   UNL     1       3.188   2.659   1.002  1.00  0.00    -0.356 N 
HETATM   11  C   UNL     1       2.975   3.811   0.278  1.00  0.00     0.043 A 
HETATM   12  C   UNL     1       3.805   4.922   0.086  1.00  0.00     0.030 A 
HETATM   13  C   UNL     1       3.320   5.963  -0.711  1.00  0.00     0.002 A 
HETATM   14  C   UNL     1       2.055   5.895  -1.291  1.00  0.00     0.001 A 
HETATM   15  C   UNL     1       1.237   4.777  -1.091  1.00  0.00     0.014 A 
HETATM   16  C   UNL     1       1.704   3.713  -0.295  1.00  0.00    -0.001 A 
HETATM   17  C   UNL     1       2.011   0.464   1.489  1.00  0.00     0.174 C 
HETATM   18  C   UNL     1      -1.668  -0.059   0.258  1.00  0.00     0.243 C 
HETATM   19  O   UNL     1      -2.521   0.453  -0.468  1.00  0.00    -0.271 OA
HETATM   20  H   UNL     1       4.038   2.448   1.508  1.00  0.00     0.166 HD
ENDROOT
BRANCH  17  21
HETATM   21  C   UNL     1       3.094  -0.483   0.960  1.00  0.00     0.004 A 
HETATM   22  C   UNL     1       3.909  -1.150   1.897  1.00  0.00     0.015 A 
HETATM   23  C   UNL     1       4.916  -2.036   1.499  1.00  0.00     0.037 A 
HETATM   24  C   UNL     1       5.132  -2.284   0.148  1.00  0.00     0.070 A 
HETATM   25  C   UNL     1       4.340  -1.629  -0.796  1.00  0.00     0.074 A 
HETATM   26  C   UNL     1       3.343  -0.726  -0.401  1.00  0.00     0.079 A 
BRANCH  24  27
HETATM   27  O   UNL     1       6.066  -3.133  -0.376  1.00  0.00    -0.356 OA
HETATM   28  C   UNL     1       6.841  -3.886   0.549  1.00  0.00     0.210 C 
ENDBRANCH  24  27
BRANCH  26  29
HETATM   29  O   UNL     1       2.553  -0.129  -1.347  1.00  0.00    -0.355 OA
HETATM   30  C   UNL     1       3.307   0.626  -2.298  1.00  0.00     0.210 C 
ENDBRANCH  26  29
ENDBRANCH  17  21
BRANCH   1  31
HETATM   31  C   UNL     1      -3.334  -1.623   1.137  1.00  0.00     0.126 C 
BRANCH  31  32
HETATM   32  C   UNL     1      -3.805  -2.178   2.483  1.00  0.00     0.020 C 
BRANCH  32  33
HETATM   33  C   UNL     1      -5.291  -2.545   2.440  1.00  0.00     0.001 C 
BRANCH  33  34
HETATM   34  C   UNL     1      -5.754  -3.150   3.765  1.00  0.00    -0.004 C 
HETATM   35  C   UNL     1      -7.229  -3.517   3.725  1.00  0.00     0.005 C 
ENDBRANCH  33  34
ENDBRANCH  32  33
ENDBRANCH  31  32
ENDBRANCH   1  31
TORSDOF 7
