REMARK  2 active torsions:
REMARK  status: ('A' for Active; 'I' for Inactive)
REMARK    1  A    between atoms: N_4  and  N_5 
REMARK    2  A    between atoms: C_6  and  C_7 
ROOT
HETATM    1  O   UNL     1       1.038   4.028   1.373  1.00  0.00    -0.271 OA
HETATM    2  C   UNL     1       0.621   2.905   1.095  1.00  0.00     0.240 C 
HETATM    3  C   UNL     1      -0.791   2.474   1.458  1.00  0.00     0.257 C 
HETATM    4  N   UNL     1      -1.286   1.461   0.530  1.00  0.00    -0.228 N 
HETATM    5  C   UNL     1      -0.505   0.301   0.369  1.00  0.00     0.263 C 
HETATM    6  O   UNL     1      -0.963  -0.797   0.045  1.00  0.00    -0.269 OA
HETATM    7  C   UNL     1       0.981   0.481   0.749  1.00  0.00     0.186 C 
HETATM    8  C   UNL     1       1.783  -0.542  -0.095  1.00  0.00     0.076 C 
HETATM    9  C   UNL     1       3.232  -0.235  -0.062  1.00  0.00    -0.019 A 
HETATM   10  C   UNL     1       3.682   1.028   0.242  1.00  0.00     0.035 A 
HETATM   11  C   UNL     1       2.872   2.206   0.620  1.00  0.00     0.184 C 
HETATM   12  N   UNL     1       1.438   1.892   0.586  1.00  0.00    -0.331 N 
HETATM   13  N   UNL     1       5.049   1.016   0.179  1.00  0.00    -0.357 N 
HETATM   14  C   UNL     1       5.491  -0.247  -0.152  1.00  0.00     0.043 A 
HETATM   15  C   UNL     1       6.795  -0.731  -0.318  1.00  0.00     0.030 A 
HETATM   16  C   UNL     1       6.947  -2.078  -0.662  1.00  0.00     0.002 A 
HETATM   17  C   UNL     1       5.839  -2.905  -0.836  1.00  0.00     0.001 A 
HETATM   18  C   UNL     1       4.542  -2.406  -0.667  1.00  0.00     0.014 A 
HETATM   19  C   UNL     1       4.363  -1.055  -0.316  1.00  0.00    -0.001 A 
HETATM   20  H   UNL     1       5.657   1.804   0.356  1.00  0.00     0.166 HD
ENDROOT
BRANCH   4  21
HETATM   21  N   UNL     1      -2.655   1.263   0.443  1.00  0.00    -0.180 NA
HETATM   22  C   UNL     1      -3.363   2.265   0.024  1.00  0.00     0.157 C 
BRANCH  22  23
HETATM   23  C   UNL     1      -4.798   2.161  -0.060  1.00  0.00     0.024 A 
HETATM   24  S   UNL     1      -5.711   3.524  -0.544  1.00  0.00    -0.101 SA
HETATM   25  C   UNL     1      -7.185   2.668  -0.391  1.00  0.00     0.050 A 
HETATM   26  C   UNL     1      -6.987   1.368   0.017  1.00  0.00     0.008 A 
HETATM   27  C   UNL     1      -5.606   1.074   0.209  1.00  0.00     0.021 A 
ENDBRANCH  22  23
ENDBRANCH   4  21
TORSDOF 2
