REMARK  7 active torsions:
REMARK  status: ('A' for Active; 'I' for Inactive)
REMARK       I    between atoms: N_2  and  C_3 
REMARK    1  A    between atoms: C_3  and  C_5 
REMARK    2  A    between atoms: C_9  and  O_10 
REMARK    3  A    between atoms: C_12  and  O_13 
REMARK       I    between atoms: N_18  and  C_19 
REMARK    4  A    between atoms: C_19  and  C_21 
REMARK    5  A    between atoms: C_21  and  C_22 
REMARK    6  A    between atoms: C_22  and  C_28 
REMARK    7  A    between atoms: C_28  and  N_29 
ROOT
HETATM    1  C   UNL     1       0.488  -2.869   0.276  1.00  0.00     0.183 C 
HETATM    2  C   UNL     1      -0.678  -3.836  -0.033  1.00  0.00     0.074 C 
HETATM    3  C   UNL     1      -1.894  -3.116  -0.552  1.00  0.00    -0.045 A 
HETATM    4  C   UNL     1      -2.721  -3.663  -1.533  1.00  0.00     0.047 A 
HETATM    5  C   UNL     1      -3.881  -2.991  -1.933  1.00  0.00     0.102 A 
HETATM    6  C   UNL     1      -4.207  -1.739  -1.379  1.00  0.00     0.102 A 
HETATM    7  C   UNL     1      -3.384  -1.208  -0.376  1.00  0.00     0.049 A 
HETATM    8  C   UNL     1      -2.232  -1.890   0.039  1.00  0.00    -0.031 A 
HETATM    9  C   UNL     1      -1.334  -1.368   1.133  1.00  0.00     0.166 C 
HETATM   10  N   UNL     1       0.068  -1.521   0.743  1.00  0.00    -0.334 N 
HETATM   11  C   UNL     1       0.996  -0.490   0.681  1.00  0.00     0.221 C 
HETATM   12  O   UNL     1       2.128  -0.682   0.234  1.00  0.00    -0.273 OA
ENDROOT
BRANCH   1  13
HETATM   13  C   UNL     1       1.398  -3.500   1.355  1.00  0.00     0.240 C 
HETATM   14  N   UNL     1       2.728  -3.140   1.246  1.00  0.00    -0.364 N 
HETATM   15  C   UNL     1       3.682  -3.499   2.262  1.00  0.00     0.149 C 
HETATM   16  H   UNL     1       2.914  -2.299   0.695  1.00  0.00     0.161 HD
HETATM   17  O   UNL     1       0.970  -4.184   2.282  1.00  0.00    -0.271 OA
ENDBRANCH   1  13
BRANCH  11  18
HETATM   18  C   UNL     1       0.567   0.877   1.210  1.00  0.00     0.114 C 
BRANCH  18  19
HETATM   19  C   UNL     1       1.689   1.964   1.351  1.00  0.00    -0.016 C 
HETATM   20  C   UNL     1       1.010   3.260   1.897  1.00  0.00     0.011 C 
HETATM   21  C   UNL     1       0.351   4.086   0.795  1.00  0.00     0.001 C 
HETATM   22  C   UNL     1       1.368   4.568  -0.239  1.00  0.00     0.000 C 
HETATM   23  C   UNL     1       2.631   3.712  -0.294  1.00  0.00     0.001 C 
HETATM   24  C   UNL     1       2.327   2.237  -0.043  1.00  0.00     0.011 C 
BRANCH  19  25
HETATM   25  C   UNL     1       2.729   1.430   2.392  1.00  0.00     0.137 C 
BRANCH  25  26
HETATM   26  N   UNL     1       3.850   2.297   2.720  1.00  0.00    -0.366 N 
HETATM   27  C   UNL     1       3.917   3.128   3.810  1.00  0.00     0.090 A 
HETATM   28  C   UNL     1       5.160   3.721   3.820  1.00  0.00     0.019 A 
HETATM   29  C   UNL     1       5.885   3.197   2.724  1.00  0.00     0.019 A 
HETATM   30  C   UNL     1       5.062   2.301   2.078  1.00  0.00     0.090 A 
ENDBRANCH  25  26
ENDBRANCH  19  25
ENDBRANCH  18  19
ENDBRANCH  11  18
BRANCH   6  31
HETATM   31  O   UNL     1      -5.321  -1.109  -1.867  1.00  0.00    -0.353 OA
HETATM   32  C   UNL     1      -5.551   0.236  -1.469  1.00  0.00     0.210 C 
ENDBRANCH   6  31
BRANCH   5  33
HETATM   33  O   UNL     1      -4.589  -3.632  -2.921  1.00  0.00    -0.353 OA
HETATM   34  C   UNL     1      -5.996  -3.682  -2.700  1.00  0.00     0.210 C 
ENDBRANCH   5  33
TORSDOF 7
