REMARK  7 active torsions:
REMARK  status: ('A' for Active; 'I' for Inactive)
REMARK    1  A    between atoms: O_2  and  C_3 
REMARK    2  A    between atoms: C_8  and  C_9 
REMARK    3  A    between atoms: N_15  and  C_16 
REMARK    4  A    between atoms: C_16  and  C_17 
REMARK    5  A    between atoms: C_17  and  C_18 
REMARK    6  A    between atoms: C_18  and  O_19 
REMARK    7  A    between atoms: O_19  and  C_20 
ROOT
HETATM    1  C   UNL     1      -1.313   3.317   0.324  1.00  0.00     0.075 C 
HETATM    2  C   UNL     1      -1.890   1.951   0.760  1.00  0.00     0.142 C 
HETATM    3  N   UNL     1      -1.181   0.784   0.198  1.00  0.00    -0.327 N 
HETATM    4  C   UNL     1      -1.922  -0.374  -0.019  1.00  0.00     0.239 C 
HETATM    5  O   UNL     1      -3.124  -0.468   0.226  1.00  0.00    -0.271 OA
HETATM    6  C   UNL     1      -1.120  -1.588  -0.482  1.00  0.00     0.228 C 
HETATM    7  N   UNL     1       0.116  -1.246  -1.178  1.00  0.00    -0.341 N 
HETATM    8  C   UNL     1       0.961  -0.295  -0.605  1.00  0.00     0.254 C 
HETATM    9  O   UNL     1       2.176  -0.286  -0.825  1.00  0.00    -0.270 OA
HETATM   10  C   UNL     1       0.285   0.666   0.438  1.00  0.00     0.155 C 
HETATM   11  C   UNL     1       0.577   0.137   1.851  1.00  0.00     0.056 C 
HETATM   12  C   UNL     1       0.866   2.056   0.272  1.00  0.00     0.056 A 
HETATM   13  N   UNL     1       2.202   2.323   0.096  1.00  0.00    -0.356 N 
HETATM   14  C   UNL     1       2.401   3.672  -0.080  1.00  0.00     0.043 A 
HETATM   15  C   UNL     1       3.585   4.382  -0.312  1.00  0.00     0.030 A 
HETATM   16  C   UNL     1       3.490   5.765  -0.485  1.00  0.00     0.002 A 
HETATM   17  C   UNL     1       2.257   6.410  -0.436  1.00  0.00     0.001 A 
HETATM   18  C   UNL     1       1.082   5.685  -0.208  1.00  0.00     0.014 A 
HETATM   19  C   UNL     1       1.150   4.289  -0.017  1.00  0.00    -0.000 A 
HETATM   20  C   UNL     1       0.186   3.263   0.233  1.00  0.00    -0.010 A 
HETATM   21  H   UNL     1       2.925   1.616   0.016  1.00  0.00     0.166 HD
ENDROOT
BRANCH   1  22
HETATM   22  C   UNL     1      -1.732   4.406   1.306  1.00  0.00    -0.015 A 
HETATM   23  C   UNL     1      -2.866   5.200   1.030  1.00  0.00     0.075 A 
HETATM   24  C   UNL     1      -3.269   6.183   1.942  1.00  0.00     0.037 A 
HETATM   25  C   UNL     1      -2.577   6.367   3.140  1.00  0.00     0.003 A 
HETATM   26  C   UNL     1      -1.482   5.566   3.440  1.00  0.00     0.001 A 
HETATM   27  C   UNL     1      -1.069   4.588   2.537  1.00  0.00     0.011 A 
BRANCH  23  28
HETATM   28  O   UNL     1      -3.510   4.937  -0.152  1.00  0.00    -0.355 OA
HETATM   29  C   UNL     1      -4.761   5.574  -0.375  1.00  0.00     0.210 C 
ENDBRANCH  23  28
ENDBRANCH   1  22
BRANCH   7  30
HETATM   30  C   UNL     1       0.678  -2.231  -2.097  1.00  0.00     0.128 C 
BRANCH  30  31
HETATM   31  C   UNL     1       1.226  -3.463  -1.383  1.00  0.00     0.046 C 
BRANCH  31  32
HETATM   32  C   UNL     1       1.864  -4.433  -2.368  1.00  0.00     0.169 C 
BRANCH  32  33
HETATM   33  O   UNL     1       2.239  -5.608  -1.650  1.00  0.00    -0.387 OA
BRANCH  33  34
HETATM   34  C   UNL     1       2.842  -6.611  -2.472  1.00  0.00     0.113 C 
HETATM   35  C   UNL     1       2.664  -7.944  -1.755  1.00  0.00     0.039 C 
HETATM   36  C   UNL     1       4.324  -6.312  -2.677  1.00  0.00     0.039 C 
ENDBRANCH  33  34
ENDBRANCH  32  33
ENDBRANCH  31  32
ENDBRANCH  30  31
ENDBRANCH   7  30
TORSDOF 7
