REMARK  8 active torsions:
REMARK  status: ('A' for Active; 'I' for Inactive)
REMARK    1  A    between atoms: C_5  and  N_6 
REMARK       I    between atoms: N_6  and  C_7 
REMARK    2  A    between atoms: C_7  and  C_9 
REMARK    3  A    between atoms: C_9  and  C_10 
REMARK    4  A    between atoms: C_9  and  N_20 
REMARK    5  A    between atoms: C_10  and  C_11 
REMARK       I    between atoms: N_20  and  C_21 
REMARK    6  A    between atoms: C_21  and  O_23 
REMARK    7  A    between atoms: O_23  and  C_24 
REMARK    8  A    between atoms: C_24  and  C_25 
ROOT
HETATM    1  C   UNL     1       1.246   1.172   1.377  1.00  0.00     0.183 C 
ENDROOT
BRANCH   1   2
HETATM    2  C   UNL     1      -0.202   1.486   1.807  1.00  0.00     0.245 C 
HETATM    3  N   UNL     1      -1.118   0.597   1.261  1.00  0.00    -0.325 N 
HETATM    4  H   UNL     1      -0.729  -0.164   0.710  1.00  0.00     0.169 HD
HETATM    5  O   UNL     1      -0.458   2.400   2.587  1.00  0.00    -0.271 OA
BRANCH   3   6
HETATM    6  C   UNL     1      -2.519   0.599   1.408  1.00  0.00     0.034 A 
HETATM    7  C   UNL     1      -3.227   1.538   2.161  1.00  0.00     0.031 A 
HETATM    8  C   UNL     1      -4.622   1.470   2.251  1.00  0.00     0.020 A 
HETATM    9  C   UNL     1      -5.316   0.462   1.584  1.00  0.00     0.006 A 
HETATM   10  I   UNL     1      -7.386   0.364   1.717  1.00  0.00    -0.045 I 
HETATM   11  C   UNL     1      -4.623  -0.478   0.827  1.00  0.00     0.020 A 
HETATM   12  C   UNL     1      -3.230  -0.406   0.741  1.00  0.00     0.031 A 
ENDBRANCH   3   6
ENDBRANCH   1   2
BRANCH   1  13
HETATM   13  C   UNL     1       2.120   2.427   1.526  1.00  0.00     0.076 C 
BRANCH  13  14
HETATM   14  C   UNL     1       3.460   2.270   0.870  1.00  0.00    -0.028 A 
HETATM   15  C   UNL     1       4.645   1.926   1.491  1.00  0.00     0.096 A 
HETATM   16  N   UNL     1       5.629   1.872   0.541  1.00  0.00    -0.365 N 
HETATM   17  C   UNL     1       5.113   2.179  -0.696  1.00  0.00     0.042 A 
HETATM   18  H   UNL     1       6.597   1.642   0.717  1.00  0.00     0.165 HD
HETATM   19  C   UNL     1       5.745   2.246  -1.944  1.00  0.00     0.030 A 
HETATM   20  C   UNL     1       3.754   2.440  -0.522  1.00  0.00    -0.002 A 
HETATM   21  C   UNL     1       4.961   2.594  -3.048  1.00  0.00     0.002 A 
HETATM   22  C   UNL     1       3.603   2.864  -2.907  1.00  0.00     0.001 A 
HETATM   23  C   UNL     1       2.987   2.791  -1.652  1.00  0.00     0.014 A 
ENDBRANCH  13  14
ENDBRANCH   1  13
BRANCH   1  24
HETATM   24  N   UNL     1       1.745   0.068   2.202  1.00  0.00    -0.323 N 
HETATM   25  C   UNL     1       1.597  -1.259   1.952  1.00  0.00     0.361 C 
HETATM   26  O   UNL     1       2.053  -2.115   2.694  1.00  0.00    -0.238 OA
HETATM   27  H   UNL     1       2.181   0.282   3.089  1.00  0.00     0.165 HD
BRANCH  25  28
HETATM   28  O   UNL     1       0.884  -1.498   0.825  1.00  0.00    -0.299 OA
BRANCH  28  29
HETATM   29  C   UNL     1       0.717  -2.890   0.531  1.00  0.00     0.219 C 
BRANCH  29  30
HETATM   30  C   UNL     1      -0.310  -3.009  -0.568  1.00  0.00    -0.034 A 
HETATM   31  C   UNL     1      -1.426  -3.843  -0.413  1.00  0.00     0.009 A 
HETATM   32  C   UNL     1      -2.376  -3.951  -1.431  1.00  0.00     0.001 A 
HETATM   33  C   UNL     1      -2.217  -3.232  -2.614  1.00  0.00     0.000 A 
HETATM   34  C   UNL     1      -1.106  -2.408  -2.784  1.00  0.00     0.001 A 
HETATM   35  C   UNL     1      -0.155  -2.299  -1.769  1.00  0.00     0.009 A 
ENDBRANCH  29  30
ENDBRANCH  28  29
ENDBRANCH  25  28
ENDBRANCH   1  24
TORSDOF 8
