REMARK  5 active torsions:
REMARK  status: ('A' for Active; 'I' for Inactive)
REMARK    1  A    between atoms: C_4  and  C_15 
REMARK    2  A    between atoms: C_6  and  C_8 
REMARK    3  A    between atoms: C_22  and  C_23 
REMARK    4  A    between atoms: C_23  and  N_24 
REMARK       I    between atoms: N_24  and  C_25 
REMARK    5  A    between atoms: C_25  and  C_27 
ROOT
HETATM    1  C   UNL     1       0.102  -0.950  -2.976  1.00  0.00     0.070 C 
HETATM    2  C   UNL     1      -0.252  -0.202  -1.664  1.00  0.00     0.284 C 
HETATM    3  N   UNL     1      -1.422   0.705  -1.829  1.00  0.00     0.095 N 
HETATM    4  C   UNL     1      -1.176   1.580  -3.000  1.00  0.00     0.273 C 
HETATM    5  C   UNL     1      -1.076   0.781  -4.309  1.00  0.00     0.036 C 
HETATM    6  C   UNL     1      -1.057  -0.726  -3.985  1.00  0.00     0.001 C 
HETATM    7  C   UNL     1      -2.420  -1.041  -3.337  1.00  0.00     0.043 C 
HETATM    8  C   UNL     1      -2.616  -0.171  -2.078  1.00  0.00     0.241 C 
ENDROOT
BRANCH   1   9
HETATM    9  C   UNL     1       0.498  -2.393  -2.727  1.00  0.00     0.045 A 
HETATM   10  N   UNL     1      -0.242  -3.371  -3.285  1.00  0.00    -0.238 NA
HETATM   11  C   UNL     1       0.127  -4.643  -3.047  1.00  0.00     0.123 A 
HETATM   12  C   UNL     1      -0.674  -5.729  -3.693  1.00  0.00     0.093 C 
HETATM   13  N   UNL     1       1.189  -5.006  -2.311  1.00  0.00    -0.233 NA
HETATM   14  C   UNL     1       1.911  -4.014  -1.751  1.00  0.00     0.072 A 
HETATM   15  C   UNL     1       1.609  -2.680  -1.955  1.00  0.00     0.060 A 
BRANCH  14  16
HETATM   16  C   UNL     1       3.068  -4.446  -0.954  1.00  0.00     0.010 A 
HETATM   17  C   UNL     1       4.083  -5.192  -1.587  1.00  0.00     0.015 A 
HETATM   18  C   UNL     1       5.217  -5.619  -0.893  1.00  0.00     0.001 A 
HETATM   19  C   UNL     1       5.360  -5.316   0.456  1.00  0.00     0.001 A 
HETATM   20  C   UNL     1       4.365  -4.593   1.113  1.00  0.00     0.020 A 
HETATM   21  C   UNL     1       3.226  -4.164   0.417  1.00  0.00     0.023 A 
HETATM   22 BR   UNL     1       1.908  -3.236   1.432  1.00  0.00    -0.050 Br
ENDBRANCH  14  16
ENDBRANCH   1   9
BRANCH   8  23
HETATM   23  C   UNL     1      -3.941   0.623  -2.121  1.00  0.00     0.159 C 
BRANCH  23  24
HETATM   24  N   UNL     1      -4.021   1.544  -1.004  1.00  0.00    -0.353 N 
HETATM   25  C   UNL     1      -5.167   2.266  -0.737  1.00  0.00     0.275 C 
HETATM   26  O   UNL     1      -6.203   2.068  -1.369  1.00  0.00    -0.265 OA
HETATM   27  H   UNL     1      -3.132   1.846  -0.626  1.00  0.00     0.162 HD
BRANCH  25  28
HETATM   28  C   UNL     1      -5.032   3.258   0.314  1.00  0.00     0.142 A 
HETATM   29  O   UNL     1      -6.099   4.084   0.561  1.00  0.00    -0.317 OA
HETATM   30  C   UNL     1      -5.749   4.918   1.572  1.00  0.00     0.143 A 
HETATM   31  C   UNL     1      -4.470   4.652   1.993  1.00  0.00     0.027 A 
HETATM   32  C   UNL     1      -4.005   3.583   1.187  1.00  0.00     0.045 A 
ENDBRANCH  25  28
ENDBRANCH  23  24
ENDBRANCH   8  23
TORSDOF 5
