REMARK  8 active torsions:
REMARK  status: ('A' for Active; 'I' for Inactive)
REMARK    1  A    between atoms: O_1  and  C_2 
REMARK    2  A    between atoms: C_2  and  C_3 
REMARK    3  A    between atoms: C_3  and  N_4 
REMARK    4  A    between atoms: N_7  and  C_8 
REMARK    5  A    between atoms: C_8  and  C_9 
REMARK    6  A    between atoms: C_9  and  O_10 
REMARK    7  A    between atoms: O_10  and  C_11 
REMARK    8  A    between atoms: C_17  and  C_22 
ROOT
HETATM    1  C   UNL     1       2.121   0.285   1.355  1.00  0.00     0.071 A 
HETATM    2  C   UNL     1       2.972   1.283   1.844  1.00  0.00     0.038 A 
HETATM    3  C   UNL     1       2.452   2.455   2.398  1.00  0.00     0.021 A 
HETATM    4  C   UNL     1       1.068   2.629   2.463  1.00  0.00     0.049 A 
HETATM    5  C   UNL     1       0.490   3.855   3.042  1.00  0.00     0.197 A 
HETATM    6  O   UNL     1       1.214   4.741   3.481  1.00  0.00    -0.286 OA
HETATM    7  C   UNL     1      -0.998   3.949   3.056  1.00  0.00     0.048 A 
HETATM    8  C   UNL     1      -1.678   2.903   2.558  1.00  0.00     0.159 A 
HETATM    9  O   UNL     1      -1.149   1.756   2.018  1.00  0.00    -0.321 OA
HETATM   10  C   UNL     1       0.218   1.640   1.979  1.00  0.00     0.091 A 
HETATM   11  C   UNL     1       0.739   0.467   1.425  1.00  0.00     0.075 A 
ENDROOT
BRANCH   1  12
HETATM   12  O   UNL     1       2.764  -0.807   0.841  1.00  0.00    -0.349 OA
BRANCH  12  13
HETATM   13  C   UNL     1       1.948  -1.855   0.306  1.00  0.00     0.206 C 
BRANCH  13  14
HETATM   14  C   UNL     1       2.877  -2.970  -0.200  1.00  0.00     0.299 C 
BRANCH  14  15
HETATM   15  N   UNL     1       2.167  -4.167  -0.688  1.00  0.00     0.093 N 
HETATM   16  C   UNL     1       1.452  -3.910  -1.955  1.00  0.00     0.302 C 
HETATM   17  C   UNL     1       0.782  -5.182  -2.530  1.00  0.00     0.302 C 
HETATM   18  N   UNL     1       1.743  -6.284  -2.738  1.00  0.00     0.093 N 
HETATM   19  C   UNL     1       2.459  -6.538  -1.470  1.00  0.00     0.302 C 
HETATM   20  C   UNL     1       3.133  -5.267  -0.908  1.00  0.00     0.302 C 
BRANCH  18  21
HETATM   21  C   UNL     1       1.087  -7.517  -3.202  1.00  0.00     0.298 C 
BRANCH  21  22
HETATM   22  C   UNL     1       0.521  -7.432  -4.628  1.00  0.00     0.194 C 
BRANCH  22  23
HETATM   23  O   UNL     1      -0.024  -8.690  -5.024  1.00  0.00    -0.399 OA
HETATM   24  H   UNL     1      -0.768  -8.885  -4.429  1.00  0.00     0.209 HD
ENDBRANCH  22  23
ENDBRANCH  21  22
ENDBRANCH  18  21
ENDBRANCH  14  15
ENDBRANCH  13  14
ENDBRANCH  12  13
ENDBRANCH   1  12
BRANCH   7  25
HETATM   25  C   UNL     1      -1.711   5.112   3.617  1.00  0.00    -0.020 A 
HETATM   26  C   UNL     1      -1.379   5.606   4.887  1.00  0.00     0.014 A 
HETATM   27  C   UNL     1      -2.053   6.706   5.426  1.00  0.00     0.024 A 
HETATM   28  C   UNL     1      -3.066   7.322   4.697  1.00  0.00     0.034 A 
HETATM   29 CL   UNL     1      -3.898   8.674   5.360  1.00  0.00    -0.084 Cl
HETATM   30  C   UNL     1      -3.407   6.852   3.432  1.00  0.00     0.024 A 
HETATM   31  C   UNL     1      -2.731   5.752   2.893  1.00  0.00     0.014 A 
ENDBRANCH   7  25
TORSDOF 8
