REMARK  8 active torsions:
REMARK  status: ('A' for Active; 'I' for Inactive)
REMARK    1  A    between atoms: C_6  and  N_7 
REMARK       I    between atoms: N_7  and  C_8 
REMARK    2  A    between atoms: C_8  and  C_10 
REMARK    3  A    between atoms: C_10  and  C_11 
REMARK    4  A    between atoms: C_10  and  N_21 
REMARK    5  A    between atoms: C_11  and  C_12 
REMARK       I    between atoms: N_21  and  C_22 
REMARK    6  A    between atoms: C_22  and  O_24 
REMARK    7  A    between atoms: O_24  and  C_25 
REMARK    8  A    between atoms: C_25  and  C_26 
ROOT
HETATM    1  C   UNL     1       0.551   1.259   0.018  1.00  0.00     0.183 C 
ENDROOT
BRANCH   1   2
HETATM    2  C   UNL     1      -0.935   0.902  -0.206  1.00  0.00     0.245 C 
HETATM    3  N   UNL     1      -1.126  -0.458  -0.401  1.00  0.00    -0.325 N 
HETATM    4  H   UNL     1      -0.298  -1.043  -0.320  1.00  0.00     0.169 HD
HETATM    5  O   UNL     1      -1.814   1.758  -0.167  1.00  0.00    -0.271 OA
BRANCH   3   6
HETATM    6  C   UNL     1      -2.334  -1.135  -0.662  1.00  0.00     0.035 A 
HETATM    7  C   UNL     1      -3.574  -0.508  -0.772  1.00  0.00     0.029 A 
HETATM    8  C   UNL     1      -4.723  -1.258  -1.044  1.00  0.00     0.003 A 
HETATM    9  C   UNL     1      -4.641  -2.640  -1.207  1.00  0.00     0.007 A 
HETATM   10  C   UNL     1      -3.409  -3.288  -1.091  1.00  0.00    -0.060 A 
HETATM   11  C   UNL     1      -3.295  -4.769  -1.295  1.00  0.00     0.048 C 
HETATM   12  C   UNL     1      -2.261  -2.525  -0.830  1.00  0.00     0.036 A 
ENDBRANCH   3   6
ENDBRANCH   1   2
BRANCH   1  13
HETATM   13  C   UNL     1       0.776   2.754  -0.264  1.00  0.00     0.076 C 
BRANCH  13  14
HETATM   14  C   UNL     1       2.229   3.127  -0.283  1.00  0.00    -0.028 A 
HETATM   15  C   UNL     1       3.096   2.971  -1.348  1.00  0.00     0.096 A 
HETATM   16  N   UNL     1       4.331   3.422  -0.968  1.00  0.00    -0.365 N 
HETATM   17  C   UNL     1       4.293   3.876   0.329  1.00  0.00     0.042 A 
HETATM   18  H   UNL     1       5.156   3.429  -1.551  1.00  0.00     0.165 HD
HETATM   19  C   UNL     1       5.311   4.419   1.123  1.00  0.00     0.030 A 
HETATM   20  C   UNL     1       2.984   3.712   0.785  1.00  0.00    -0.002 A 
HETATM   21  C   UNL     1       4.980   4.807   2.424  1.00  0.00     0.002 A 
HETATM   22  C   UNL     1       3.683   4.661   2.908  1.00  0.00     0.001 A 
HETATM   23  C   UNL     1       2.677   4.117   2.100  1.00  0.00     0.014 A 
ENDBRANCH  13  14
ENDBRANCH   1  13
BRANCH   1  24
HETATM   24  N   UNL     1       0.914   0.904   1.392  1.00  0.00    -0.323 N 
HETATM   25  C   UNL     1       1.348  -0.306   1.831  1.00  0.00     0.361 C 
HETATM   26  O   UNL     1       1.632  -0.511   3.002  1.00  0.00    -0.238 OA
HETATM   27  H   UNL     1       0.783   1.590   2.124  1.00  0.00     0.165 HD
BRANCH  25  28
HETATM   28  O   UNL     1       1.400  -1.230   0.841  1.00  0.00    -0.299 OA
BRANCH  28  29
HETATM   29  C   UNL     1       1.859  -2.516   1.275  1.00  0.00     0.219 C 
BRANCH  29  30
HETATM   30  C   UNL     1       1.605  -3.503   0.162  1.00  0.00    -0.034 A 
HETATM   31  C   UNL     1       2.040  -3.237  -1.145  1.00  0.00     0.009 A 
HETATM   32  C   UNL     1       1.801  -4.151  -2.172  1.00  0.00     0.001 A 
HETATM   33  C   UNL     1       1.136  -5.345  -1.902  1.00  0.00     0.000 A 
HETATM   34  C   UNL     1       0.712  -5.628  -0.606  1.00  0.00     0.001 A 
HETATM   35  C   UNL     1       0.947  -4.714   0.423  1.00  0.00     0.009 A 
ENDBRANCH  29  30
ENDBRANCH  28  29
ENDBRANCH  25  28
ENDBRANCH   1  24
TORSDOF 8
