REMARK  7 active torsions:
REMARK  status: ('A' for Active; 'I' for Inactive)
REMARK    1  A    between atoms: C_3  and  C_4 
REMARK    2  A    between atoms: C_4  and  C_5 
REMARK    3  A    between atoms: C_5  and  C_6 
REMARK       I    between atoms: C_6  and  N_8 
REMARK    4  A    between atoms: N_8  and  C_9 
REMARK    5  A    between atoms: C_9  and  C_10 
REMARK    6  A    between atoms: N_25  and  C_26 
REMARK    7  A    between atoms: C_26  and  C_27 
ROOT
HETATM    1  C   UNL     1       0.427   1.368  -0.838  1.00  0.00     0.311 C 
HETATM    2  N   UNL     1      -0.455   1.060   0.316  1.00  0.00     0.097 N 
HETATM    3  C   UNL     1      -1.000   2.337   0.879  1.00  0.00     0.241 C 
HETATM    4  C   UNL     1      -2.161   2.186   1.905  1.00  0.00     0.158 C 
HETATM    5  N   UNL     1      -3.423   1.820   1.313  1.00  0.00    -0.357 N 
HETATM    6  C   UNL     1      -3.727   0.573   0.845  1.00  0.00     0.253 C 
HETATM    7  O   UNL     1      -4.883   0.345   0.497  1.00  0.00    -0.271 OA
HETATM    8  C   UNL     1      -2.567  -0.430   0.824  1.00  0.00     0.347 C 
HETATM    9  C   UNL     1      -1.478   0.070  -0.149  1.00  0.00     0.267 C 
HETATM   10  C   UNL     1      -0.805  -1.255  -0.575  1.00  0.00     0.069 C 
HETATM   11  C   UNL     1      -1.735  -2.382  -0.153  1.00  0.00     0.276 C 
HETATM   12  N   UNL     1      -2.978  -1.724   0.231  1.00  0.00     0.108 N 
HETATM   13  H   UNL     1      -4.212   2.456   1.350  1.00  0.00     0.162 HD
ENDROOT
BRANCH   3  14
HETATM   14  C   UNL     1       0.133   3.111   1.622  1.00  0.00     0.047 C 
BRANCH  14  15
HETATM   15  C   UNL     1      -0.121   4.621   1.667  1.00  0.00     0.105 C 
BRANCH  15  16
HETATM   16  C   UNL     1       0.934   5.322   2.494  1.00  0.00     0.217 C 
HETATM   17  O   UNL     1       0.697   5.765   3.613  1.00  0.00    -0.274 OA
HETATM   18  N   UNL     1       2.165   5.397   1.893  1.00  0.00    -0.357 N 
HETATM   19  H   UNL     1       2.268   5.130   0.922  1.00  0.00     0.162 HD
BRANCH  18  20
HETATM   20  C   UNL     1       3.265   6.075   2.536  1.00  0.00     0.161 C 
BRANCH  20  21
HETATM   21  C   UNL     1       4.544   5.850   1.774  1.00  0.00    -0.040 A 
HETATM   22  C   UNL     1       5.297   4.684   1.987  1.00  0.00     0.012 A 
HETATM   23  C   UNL     1       6.467   4.457   1.260  1.00  0.00     0.043 A 
HETATM   24  C   UNL     1       6.878   5.389   0.315  1.00  0.00     0.116 A 
HETATM   25  F   UNL     1       7.998   5.169  -0.385  1.00  0.00    -0.206 F 
HETATM   26  C   UNL     1       6.141   6.544   0.081  1.00  0.00     0.043 A 
HETATM   27  C   UNL     1       4.971   6.774   0.807  1.00  0.00     0.012 A 
ENDBRANCH  20  21
ENDBRANCH  18  20
ENDBRANCH  15  16
ENDBRANCH  14  15
ENDBRANCH   3  14
BRANCH  12  28
HETATM   28  C   UNL     1      -3.792  -2.531   1.147  1.00  0.00     0.314 C 
BRANCH  28  29
HETATM   29  C   UNL     1      -4.301  -3.756   0.447  1.00  0.00    -0.002 A 
HETATM   30  C   UNL     1      -3.882  -5.059   0.650  1.00  0.00     0.100 A 
HETATM   31  N   UNL     1      -4.602  -5.878  -0.177  1.00  0.00    -0.360 N 
HETATM   32  C   UNL     1      -4.443  -7.313  -0.257  1.00  0.00     0.155 C 
HETATM   33  C   UNL     1      -5.499  -5.143  -0.920  1.00  0.00     0.044 A 
HETATM   34  C   UNL     1      -6.442  -5.535  -1.884  1.00  0.00     0.030 A 
HETATM   35  C   UNL     1      -5.330  -3.806  -0.549  1.00  0.00     0.000 A 
HETATM   36  C   UNL     1      -7.226  -4.542  -2.480  1.00  0.00     0.002 A 
HETATM   37  C   UNL     1      -7.074  -3.204  -2.129  1.00  0.00     0.001 A 
HETATM   38  C   UNL     1      -6.132  -2.825  -1.168  1.00  0.00     0.014 A 
ENDBRANCH  28  29
ENDBRANCH  12  28
TORSDOF 7
