#

@<TRIPOS>MOLECULE
complex.pdb
 55 57 0 0 0
SMALL
USER_CHARGES

@<TRIPOS>ATOM
      1 N          -1.7080    8.7030  -11.6550 N.am      1 LIG        -0.2863
      2 C          -0.4650    8.8470  -11.0860 C.2       1 LIG         0.3036
      3 O           0.0560    9.9470  -10.9340 O.2       1 LIG        -0.2526
      4 N1          0.1370    7.6430  -10.7300 N.am      1 LIG        -0.2742
      5 C1         -0.6780    6.5290  -10.2340 C.3       1 LIG         0.0210
      6 C2          0.0640    5.1980  -10.2270 C.3       1 LIG        -0.0113
      7 C3          1.3290    5.3230   -9.4300 C.ar      1 LIG        -0.0369
      8 C4          1.8310    4.2330   -8.7040 C.ar      1 LIG        -0.0127
      9 C5          3.0030    4.3530   -7.9550 C.ar      1 LIG         0.1618
     10 C6          3.7140    5.5550   -7.9900 C.ar      1 LIG         0.1618
     11 C7          3.2160    6.6490   -8.7030 C.ar      1 LIG        -0.0108
     12 C8          2.0250    6.5430   -9.4410 C.ar      1 LIG        -0.0157
     13 C9          1.5370    7.7360  -10.2670 C.3       1 LIG         0.0783
     14 H          -1.7300    7.9150  -12.2880 H         1 LIG         0.1511
     15 C10         2.4660    7.9870  -11.4620 C.ar      1 LIG        -0.0226
     16 C11         3.7080    8.6260  -11.3030 C.ar      1 LIG        -0.0565
     17 C12         4.5410    8.8490  -12.4020 C.ar      1 LIG        -0.0614
     18 C13         4.1470    8.4340  -13.6710 C.ar      1 LIG        -0.0617
     19 C14         2.9240    7.7910  -13.8450 C.ar      1 LIG        -0.0614
     20 C15         2.0890    7.5670  -12.7470 C.ar      1 LIG        -0.0565
     21 C16        -2.3910    9.8950  -12.1690 C.3       1 LIG         0.1188
     22 C17        -1.5960   10.4710  -13.3340 C.3       1 LIG        -0.0362
     23 C18        -2.5740   10.9870  -11.1000 C.2       1 LIG         0.3271
     24 O1         -2.6210   12.1870  -11.3520 O.2       1 LIG        -0.2488
     25 O2         -2.5860   10.4620   -9.8400 O.3       1 LIG        -0.4666
     26 C19        -3.7580   10.7740   -9.0890 C.3       1 LIG         0.0817
     27 O3          4.9020    5.7200   -7.3270 O.3       1 LIG        -0.4914
     28 C20         4.7940    5.1750   -6.0090 C.3       1 LIG         0.0790
     29 O4          3.3810    3.2200   -7.2820 O.3       1 LIG        -0.4914
     30 C21         2.5980    2.0690   -7.5890 C.3       1 LIG         0.0790
     31 HC2        -0.9912    6.7561   -9.2150 H         1 LIG         0.0468
     32 HC3        -1.5641    6.4346  -10.8617 H         1 LIG         0.0468
     33 HC4         0.3085    4.9152  -11.2509 H         1 LIG         0.0328
     34 HC5        -0.5706    4.4319   -9.7814 H         1 LIG         0.0328
     35 HC          1.3049    3.2901   -8.7246 H         1 LIG         0.0658
     36 HC1         3.7525    7.5862   -8.6866 H         1 LIG         0.0659
     37 HC6         1.6014    8.6144   -9.6248 H         1 LIG         0.0601
     38 HC7         4.0215    8.9479  -10.3209 H         1 LIG         0.0621
     39 HC8         5.4915    9.3438  -12.2670 H         1 LIG         0.0618
     40 HC9         4.7898    8.6107  -14.5207 H         1 LIG         0.0618
     41 HC10        2.6207    7.4653  -14.8290 H         1 LIG         0.0618
     42 HC11        1.1432    7.0652  -12.8888 H         1 LIG         0.0621
     43 HC12       -3.3748    9.5997  -12.5339 H         1 LIG         0.0612
     44 HC13        5.3118    5.8245   -5.3032 H         1 LIG         0.0660
     45 HC14        3.7425    5.1021   -5.7313 H         1 LIG         0.0660
     46 HC15        5.2450    4.1829   -5.9880 H         1 LIG         0.0660
     47 HC16       -2.1022   11.3570  -13.7172 H         1 LIG         0.0253
     48 HC17       -0.5971   10.7427  -12.9928 H         1 LIG         0.0253
     49 HC18       -1.5194    9.7255  -14.1255 H         1 LIG         0.0253
     50 HC19        3.0362    1.1928   -7.1111 H         1 LIG         0.0660
     51 HC20        1.5818    2.2127   -7.2219 H         1 LIG         0.0660
     52 HC21        2.5768    1.9214   -8.6688 H         1 LIG         0.0660
     53 HC22       -3.6884   10.3198   -8.1006 H         1 LIG         0.0661
     54 HC23       -3.8461   11.8556   -8.9862 H         1 LIG         0.0661
     55 HC24       -4.6352   10.3856   -9.6064 H         1 LIG         0.0661
@<TRIPOS>BOND
     1    1    2 am 
     2    1   14 1  
     3    1   21 1  
     4    2    3 2  
     5    2    4 am 
     6    4    5 1  
     7    4   13 1  
     8    5    6 1  
     9    6    7 1  
    10    7    8 2  
    11    7   12 1  
    12    8    9 1  
    13    9   10 2  
    14    9   29 1  
    15   10   11 1  
    16   10   27 1  
    17   11   12 2  
    18   12   13 1  
    19   13   15 1  
    20   15   16 2  
    21   15   20 1  
    22   16   17 1  
    23   17   18 2  
    24   18   19 1  
    25   19   20 2  
    26   21   22 1  
    27   21   23 1  
    28   23   24 2  
    29   23   25 1  
    30   25   26 1  
    31   27   28 1  
    32   29   30 1  
    33   31    5 1  
    34   32    5 1  
    35   33    6 1  
    36   34    6 1  
    37   35    8 1  
    38   36   11 1  
    39   37   13 1  
    40   38   16 1  
    41   39   17 1  
    42   40   18 1  
    43   41   19 1  
    44   42   20 1  
    45   43   21 1  
    46   44   28 1  
    47   45   28 1  
    48   46   28 1  
    49   47   22 1  
    50   48   22 1  
    51   49   22 1  
    52   50   30 1  
    53   51   30 1  
    54   52   30 1  
    55   53   26 1  
    56   54   26 1  
    57   55   26 1  
