REMARK  11 active torsions:
REMARK  status: ('A' for Active; 'I' for Inactive)
REMARK    1  A    between atoms: C_2  and  O_5 
REMARK    2  A    between atoms: O_5  and  C_6 
REMARK    3  A    between atoms: C_6  and  C_8 
REMARK    4  A    between atoms: C_8  and  N_9 
REMARK       I    between atoms: N_9  and  C_10 
REMARK    5  A    between atoms: C_10  and  C_12 
REMARK    6  A    between atoms: C_12  and  C_13 
REMARK    7  A    between atoms: C_12  and  N_20 
REMARK    8  A    between atoms: C_13  and  C_14 
REMARK       I    between atoms: N_20  and  C_21 
REMARK    9  A    between atoms: C_21  and  O_23 
REMARK   10  A    between atoms: O_23  and  C_24 
REMARK   11  A    between atoms: C_24  and  C_25 
ROOT
HETATM    1  C   UNL     1       2.581   0.094  -1.253  1.00  0.00     0.183 C 
ENDROOT
BRANCH   1   2
HETATM    2  C   UNL     1       3.517  -0.882  -1.992  1.00  0.00     0.241 C 
HETATM    3  N   UNL     1       3.423  -2.178  -1.540  1.00  0.00    -0.350 N 
HETATM    4  H   UNL     1       2.831  -2.376  -0.738  1.00  0.00     0.163 HD
HETATM    5  O   UNL     1       4.180  -0.579  -2.978  1.00  0.00    -0.271 OA
BRANCH   3   6
HETATM    6  C   UNL     1       4.156  -3.281  -2.139  1.00  0.00     0.233 C 
BRANCH   6   7
HETATM    7  C   UNL     1       3.864  -4.620  -1.466  1.00  0.00     0.277 C 
HETATM    8  O   UNL     1       4.374  -5.677  -1.810  1.00  0.00    -0.263 OA
BRANCH   7   9
HETATM    9  O   UNL     1       2.970  -4.463  -0.447  1.00  0.00    -0.310 OA
BRANCH   9  10
HETATM   10  C   UNL     1       2.530  -5.593   0.350  1.00  0.00     0.060 C 
HETATM   11  C   UNL     1       1.544  -4.991   1.362  1.00  0.00     0.045 C 
HETATM   12  C   UNL     1       3.699  -6.221   1.115  1.00  0.00     0.045 C 
HETATM   13  C   UNL     1       1.787  -6.622  -0.509  1.00  0.00     0.045 C 
ENDBRANCH   9  10
ENDBRANCH   7   9
ENDBRANCH   6   7
ENDBRANCH   3   6
ENDBRANCH   1   2
BRANCH   1  14
HETATM   14  C   UNL     1       3.056   1.545  -1.423  1.00  0.00     0.073 C 
BRANCH  14  15
HETATM   15  C   UNL     1       2.102   2.558  -0.831  1.00  0.00    -0.056 A 
HETATM   16  C   UNL     1       2.405   3.202   0.376  1.00  0.00     0.007 A 
HETATM   17  C   UNL     1       1.512   4.122   0.930  1.00  0.00     0.001 A 
HETATM   18  C   UNL     1       0.311   4.407   0.283  1.00  0.00     0.000 A 
HETATM   19  C   UNL     1       0.001   3.772  -0.917  1.00  0.00     0.001 A 
HETATM   20  C   UNL     1       0.891   2.851  -1.472  1.00  0.00     0.007 A 
ENDBRANCH  14  15
ENDBRANCH   1  14
BRANCH   1  21
HETATM   21  N   UNL     1       2.507  -0.305   0.159  1.00  0.00    -0.323 N 
HETATM   22  C   UNL     1       1.372  -0.438   0.898  1.00  0.00     0.361 C 
HETATM   23  O   UNL     1       1.414  -0.711   2.090  1.00  0.00    -0.238 OA
HETATM   24  H   UNL     1       3.363  -0.368   0.694  1.00  0.00     0.165 HD
BRANCH  22  25
HETATM   25  O   UNL     1       0.247  -0.270   0.172  1.00  0.00    -0.299 OA
BRANCH  25  26
HETATM   26  C   UNL     1      -0.956  -0.347   0.936  1.00  0.00     0.219 C 
BRANCH  26  27
HETATM   27  C   UNL     1      -2.102   0.011   0.025  1.00  0.00    -0.034 A 
HETATM   28  C   UNL     1      -2.590  -0.920  -0.902  1.00  0.00     0.009 A 
HETATM   29  C   UNL     1      -3.636  -0.581  -1.762  1.00  0.00     0.001 A 
HETATM   30  C   UNL     1      -4.199   0.693  -1.707  1.00  0.00     0.000 A 
HETATM   31  C   UNL     1      -3.715   1.630  -0.796  1.00  0.00     0.001 A 
HETATM   32  C   UNL     1      -2.668   1.292   0.064  1.00  0.00     0.009 A 
ENDBRANCH  26  27
ENDBRANCH  25  26
ENDBRANCH  22  25
ENDBRANCH   1  21
TORSDOF 11
