REMARK  6 active torsions:
REMARK  status: ('A' for Active; 'I' for Inactive)
REMARK    1  A    between atoms: C_4  and  C_5 
REMARK    2  A    between atoms: C_5  and  N_6 
REMARK    3  A    between atoms: C_15  and  N_16 
REMARK       I    between atoms: N_16  and  C_17 
REMARK    4  A    between atoms: C_17  and  C_19 
REMARK    5  A    between atoms: C_19  and  O_20 
REMARK    6  A    between atoms: O_20  and  C_21 
ROOT
HETATM    1  N   UNL     1       2.645  -3.766   0.678  1.00  0.00     0.093 N 
HETATM    2  C   UNL     1       2.930  -2.835   1.843  1.00  0.00     0.279 C 
HETATM    3  C   UNL     1       3.031  -1.269   1.591  1.00  0.00     0.033 C 
HETATM    4  C   UNL     1       2.994  -1.097   0.099  1.00  0.00     0.020 C 
HETATM    5  C   UNL     1       1.620  -1.733  -0.165  1.00  0.00     0.065 C 
HETATM    6  C   UNL     1       1.891  -3.185  -0.501  1.00  0.00     0.283 C 
HETATM    7  C   UNL     1       0.657  -0.610  -0.083  1.00  0.00     0.021 C 
HETATM    8  C   UNL     1      -0.297  -0.287  -0.960  1.00  0.00     0.028 C 
HETATM    9  C   UNL     1      -1.145   0.850  -0.699  1.00  0.00     0.037 C 
HETATM   10  C   UNL     1      -1.024   1.591   0.417  1.00  0.00     0.103 C 
HETATM   11  C   UNL     1      -0.063   1.123   1.502  1.00  0.00     0.274 C 
HETATM   12  O   UNL     1      -0.114   1.557   2.651  1.00  0.00    -0.265 OA
HETATM   13  N   UNL     1       0.812   0.097   1.132  1.00  0.00    -0.316 N 
HETATM   14  C   UNL     1       1.835  -0.382   2.148  1.00  0.00     0.138 C 
ENDROOT
BRANCH  10  15
HETATM   15  N   UNL     1      -1.819   2.704   0.590  1.00  0.00    -0.321 N 
HETATM   16  C   UNL     1      -1.488   3.840   1.307  1.00  0.00     0.246 C 
HETATM   17  O   UNL     1      -0.375   4.116   1.746  1.00  0.00    -0.271 OA
HETATM   18  H   UNL     1      -2.624   2.818  -0.018  1.00  0.00     0.169 HD
BRANCH  16  19
HETATM   19  C   UNL     1      -2.666   4.800   1.478  1.00  0.00     0.278 C 
BRANCH  19  20
HETATM   20  O   UNL     1      -3.650   4.566   0.471  1.00  0.00    -0.342 OA
BRANCH  20  21
HETATM   21  C   UNL     1      -4.765   5.356   0.505  1.00  0.00     0.069 A 
HETATM   22  C   UNL     1      -5.692   5.103  -0.510  1.00  0.00     0.037 A 
HETATM   23  C   UNL     1      -6.876   5.838  -0.592  1.00  0.00     0.003 A 
HETATM   24  C   UNL     1      -7.141   6.834   0.344  1.00  0.00     0.000 A 
HETATM   25  C   UNL     1      -6.222   7.092   1.360  1.00  0.00     0.003 A 
HETATM   26  C   UNL     1      -5.036   6.356   1.441  1.00  0.00     0.037 A 
ENDBRANCH  20  21
ENDBRANCH  19  20
ENDBRANCH  16  19
ENDBRANCH  10  15
BRANCH   1  27
HETATM   27  C   UNL     1       3.828  -4.536   0.273  1.00  0.00     0.313 C 
BRANCH  27  28
HETATM   28  C   UNL     1       3.428  -5.714  -0.565  1.00  0.00    -0.002 A 
HETATM   29  C   UNL     1       2.620  -6.766  -0.171  1.00  0.00     0.100 A 
HETATM   30  N   UNL     1       2.497  -7.637  -1.216  1.00  0.00    -0.360 N 
HETATM   31  C   UNL     1       1.718  -8.854  -1.185  1.00  0.00     0.155 C 
HETATM   32  C   UNL     1       3.221  -7.190  -2.300  1.00  0.00     0.044 A 
HETATM   33  C   UNL     1       3.820  -5.985  -1.919  1.00  0.00     0.000 A 
HETATM   34  C   UNL     1       3.400  -7.742  -3.579  1.00  0.00     0.030 A 
HETATM   35  C   UNL     1       4.629  -5.308  -2.857  1.00  0.00     0.014 A 
HETATM   36  C   UNL     1       4.814  -5.850  -4.134  1.00  0.00     0.001 A 
HETATM   37  C   UNL     1       4.207  -7.050  -4.487  1.00  0.00     0.002 A 
ENDBRANCH  27  28
ENDBRANCH   1  27
TORSDOF 6
