REMARK  7 active torsions:
REMARK  status: ('A' for Active; 'I' for Inactive)
REMARK    1  A    between atoms: C_3  and  C_4 
REMARK    2  A    between atoms: C_4  and  C_5 
REMARK    3  A    between atoms: C_5  and  C_6 
REMARK       I    between atoms: C_6  and  N_8 
REMARK    4  A    between atoms: N_8  and  C_9 
REMARK    5  A    between atoms: C_9  and  C_10 
REMARK    6  A    between atoms: N_25  and  C_26 
REMARK    7  A    between atoms: C_26  and  C_27 
ROOT
HETATM    1  C   UNL     1      -0.667   2.094  -2.211  1.00  0.00     0.311 C 
HETATM    2  N   UNL     1      -1.216   1.538  -0.965  1.00  0.00     0.097 N 
HETATM    3  C   UNL     1      -2.031   2.504  -0.183  1.00  0.00     0.241 C 
HETATM    4  C   UNL     1      -3.455   2.720  -0.754  1.00  0.00     0.158 C 
HETATM    5  N   UNL     1      -4.436   1.709  -0.388  1.00  0.00    -0.357 N 
HETATM    6  C   UNL     1      -4.301   0.351  -0.304  1.00  0.00     0.253 C 
HETATM    7  O   UNL     1      -5.349  -0.296  -0.236  1.00  0.00    -0.271 OA
HETATM    8  C   UNL     1      -2.893  -0.266  -0.177  1.00  0.00     0.347 C 
HETATM    9  C   UNL     1      -1.952   0.282  -1.269  1.00  0.00     0.267 C 
HETATM   10  C   UNL     1      -0.970  -0.870  -1.530  1.00  0.00     0.069 C 
HETATM   11  C   UNL     1      -1.504  -2.060  -0.753  1.00  0.00     0.276 C 
HETATM   12  N   UNL     1      -2.898  -1.725  -0.461  1.00  0.00     0.108 N 
HETATM   13  H   UNL     1      -5.412   1.969  -0.484  1.00  0.00     0.162 HD
ENDROOT
BRANCH   3  14
HETATM   14  C   UNL     1      -1.341   3.869   0.053  1.00  0.00     0.047 C 
BRANCH  14  15
HETATM   15  C   UNL     1      -0.003   3.744   0.787  1.00  0.00     0.105 C 
BRANCH  15  16
HETATM   16  C   UNL     1       0.640   5.098   1.014  1.00  0.00     0.217 C 
HETATM   17  O   UNL     1       0.109   6.163   0.717  1.00  0.00    -0.274 OA
HETATM   18  N   UNL     1       1.884   5.012   1.593  1.00  0.00    -0.357 N 
HETATM   19  H   UNL     1       2.216   4.119   1.932  1.00  0.00     0.162 HD
BRANCH  18  20
HETATM   20  C   UNL     1       2.622   6.202   1.943  1.00  0.00     0.161 C 
BRANCH  20  21
HETATM   21  C   UNL     1       4.030   5.856   2.349  1.00  0.00    -0.040 A 
HETATM   22  C   UNL     1       5.010   5.624   1.370  1.00  0.00     0.012 A 
HETATM   23  C   UNL     1       6.310   5.278   1.741  1.00  0.00     0.043 A 
HETATM   24  C   UNL     1       6.629   5.156   3.088  1.00  0.00     0.116 A 
HETATM   25  F   UNL     1       7.876   4.822   3.443  1.00  0.00    -0.206 F 
HETATM   26  C   UNL     1       5.672   5.372   4.072  1.00  0.00     0.043 A 
HETATM   27  C   UNL     1       4.370   5.718   3.704  1.00  0.00     0.012 A 
ENDBRANCH  20  21
ENDBRANCH  18  20
ENDBRANCH  15  16
ENDBRANCH  14  15
ENDBRANCH   3  14
BRANCH  12  28
HETATM   28  C   UNL     1      -3.433  -2.516   0.657  1.00  0.00     0.314 C 
BRANCH  28  29
HETATM   29  C   UNL     1      -3.573  -3.953   0.251  1.00  0.00    -0.002 A 
HETATM   30  C   UNL     1      -2.789  -5.013   0.671  1.00  0.00     0.100 A 
HETATM   31  N   UNL     1      -3.254  -6.156   0.078  1.00  0.00    -0.360 N 
HETATM   32  C   UNL     1      -2.687  -7.472   0.268  1.00  0.00     0.155 C 
HETATM   33  C   UNL     1      -4.340  -5.875  -0.722  1.00  0.00     0.044 A 
HETATM   34  C   UNL     1      -5.145  -6.709  -1.516  1.00  0.00     0.030 A 
HETATM   35  C   UNL     1      -4.561  -4.498  -0.632  1.00  0.00     0.000 A 
HETATM   36  C   UNL     1      -6.196  -6.124  -2.229  1.00  0.00     0.002 A 
HETATM   37  C   UNL     1      -6.436  -4.755  -2.155  1.00  0.00     0.001 A 
HETATM   38  C   UNL     1      -5.628  -3.934  -1.363  1.00  0.00     0.014 A 
ENDBRANCH  28  29
ENDBRANCH  12  28
TORSDOF 7
