REMARK  11 active torsions:
REMARK  status: ('A' for Active; 'I' for Inactive)
REMARK    1  A    between atoms: O_2  and  C_3 
REMARK    2  A    between atoms: C_3  and  C_4 
REMARK    3  A    between atoms: C_4  and  C_5 
REMARK    4  A    between atoms: C_5  and  N_6 
REMARK       I    between atoms: N_6  and  C_7 
REMARK    5  A    between atoms: C_7  and  C_9 
REMARK    6  A    between atoms: C_9  and  C_10 
REMARK    7  A    between atoms: C_9  and  N_20 
REMARK    8  A    between atoms: C_10  and  C_11 
REMARK       I    between atoms: N_20  and  C_21 
REMARK    9  A    between atoms: C_21  and  O_23 
REMARK   10  A    between atoms: O_23  and  C_24 
REMARK   11  A    between atoms: C_24  and  C_25 
ROOT
HETATM    1  C   UNL     1       0.762   1.392  -0.742  1.00  0.00     0.183 C 
ENDROOT
BRANCH   1   2
HETATM    2  C   UNL     1      -0.652   1.296  -1.346  1.00  0.00     0.240 C 
HETATM    3  N   UNL     1      -1.112   0.001  -1.491  1.00  0.00    -0.359 N 
HETATM    4  H   UNL     1      -0.570  -0.743  -1.058  1.00  0.00     0.162 HD
HETATM    5  O   UNL     1      -1.331   2.278  -1.636  1.00  0.00    -0.271 OA
BRANCH   3   6
HETATM    6  C   UNL     1      -2.467  -0.269  -1.919  1.00  0.00     0.125 C 
BRANCH   6   7
HETATM    7  C   UNL     1      -2.713  -1.758  -2.096  1.00  0.00     0.046 C 
BRANCH   7   8
HETATM    8  C   UNL     1      -4.127  -2.037  -2.586  1.00  0.00     0.168 C 
BRANCH   8   9
HETATM    9  O   UNL     1      -4.291  -3.451  -2.691  1.00  0.00    -0.396 OA
HETATM   10  C   UNL     1      -5.592  -3.794  -3.152  1.00  0.00     0.201 C 
ENDBRANCH   8   9
ENDBRANCH   7   8
ENDBRANCH   6   7
ENDBRANCH   3   6
ENDBRANCH   1   2
BRANCH   1  11
HETATM   11  C   UNL     1       1.349   2.786  -1.012  1.00  0.00     0.076 C 
BRANCH  11  12
HETATM   12  C   UNL     1       2.793   2.894  -0.620  1.00  0.00    -0.028 A 
HETATM   13  C   UNL     1       3.874   2.457  -1.363  1.00  0.00     0.096 A 
HETATM   14  N   UNL     1       5.017   2.729  -0.661  1.00  0.00    -0.365 N 
HETATM   15  C   UNL     1       4.709   3.341   0.531  1.00  0.00     0.042 A 
HETATM   16  H   UNL     1       5.955   2.516  -0.968  1.00  0.00     0.165 HD
HETATM   17  C   UNL     1       5.550   3.791   1.556  1.00  0.00     0.030 A 
HETATM   18  C   UNL     1       3.320   3.465   0.583  1.00  0.00    -0.002 A 
HETATM   19  C   UNL     1       4.954   4.390   2.668  1.00  0.00     0.002 A 
HETATM   20  C   UNL     1       3.571   4.534   2.750  1.00  0.00     0.001 A 
HETATM   21  C   UNL     1       2.745   4.078   1.716  1.00  0.00     0.014 A 
ENDBRANCH  11  12
ENDBRANCH   1  11
BRANCH   1  22
HETATM   22  N   UNL     1       0.665   1.107   0.694  1.00  0.00    -0.323 N 
HETATM   23  C   UNL     1       0.709  -0.118   1.280  1.00  0.00     0.361 C 
HETATM   24  O   UNL     1       0.600  -0.268   2.488  1.00  0.00    -0.238 OA
HETATM   25  H   UNL     1       0.483   1.871   1.332  1.00  0.00     0.165 HD
BRANCH  23  26
HETATM   26  O   UNL     1       0.851  -1.119   0.380  1.00  0.00    -0.299 OA
BRANCH  26  27
HETATM   27  C   UNL     1       0.917  -2.423   0.964  1.00  0.00     0.219 C 
BRANCH  27  28
HETATM   28  C   UNL     1       0.937  -3.413  -0.172  1.00  0.00    -0.034 A 
HETATM   29  C   UNL     1       2.090  -3.566  -0.956  1.00  0.00     0.009 A 
HETATM   30  C   UNL     1       2.101  -4.455  -2.032  1.00  0.00     0.001 A 
HETATM   31  C   UNL     1       0.960  -5.192  -2.340  1.00  0.00     0.000 A 
HETATM   32  C   UNL     1      -0.193  -5.044  -1.571  1.00  0.00     0.001 A 
HETATM   33  C   UNL     1      -0.204  -4.160  -0.491  1.00  0.00     0.009 A 
ENDBRANCH  27  28
ENDBRANCH  26  27
ENDBRANCH  23  26
ENDBRANCH   1  22
TORSDOF 11
