REMARK  5 active torsions:
REMARK  status: ('A' for Active; 'I' for Inactive)
REMARK    1  A    between atoms: C_2  and  O_3 
REMARK    2  A    between atoms: O_3  and  C_4 
REMARK    3  A    between atoms: C_7  and  C_10 
REMARK       I    between atoms: C_10  and  N_12 
REMARK    4  A    between atoms: N_12  and  C_13 
REMARK    5  A    between atoms: C_13  and  C_14 
ROOT
HETATM    1  C   UNL     1      -1.627  -0.835  -1.144  1.00  0.00     0.251 C 
HETATM    2  O   UNL     1      -2.289  -1.406  -2.003  1.00  0.00    -0.268 OA
HETATM    3  N   UNL     1      -2.131   0.167  -0.346  1.00  0.00    -0.353 N 
HETATM    4  H   UNL     1      -1.637   0.435   0.494  1.00  0.00     0.163 HD
ENDROOT
BRANCH   1   5
HETATM    5  C   UNL     1      -0.214  -1.238  -0.893  1.00  0.00     0.032 A 
HETATM    6  C   UNL     1       0.188  -2.525  -1.271  1.00  0.00     0.020 A 
HETATM    7  C   UNL     1       1.506  -2.949  -1.064  1.00  0.00     0.038 A 
HETATM    8  C   UNL     1       2.435  -2.085  -0.486  1.00  0.00     0.068 A 
HETATM    9  C   UNL     1       2.037  -0.796  -0.121  1.00  0.00     0.038 A 
HETATM   10  C   UNL     1       0.721  -0.367  -0.325  1.00  0.00     0.020 A 
BRANCH   8  11
HETATM   11  O   UNL     1       3.748  -2.368  -0.232  1.00  0.00    -0.352 OA
BRANCH  11  12
HETATM   12  C   UNL     1       4.226  -3.652  -0.632  1.00  0.00     0.171 C 
HETATM   13  C   UNL     1       5.701  -3.732  -0.283  1.00  0.00     0.034 C 
ENDBRANCH  11  12
ENDBRANCH   8  11
ENDBRANCH   1   5
BRANCH   3  14
HETATM   14  C   UNL     1      -3.515   0.565  -0.456  1.00  0.00     0.161 C 
BRANCH  14  15
HETATM   15  C   UNL     1      -3.773   1.811   0.347  1.00  0.00    -0.041 A 
HETATM   16  C   UNL     1      -3.375   3.063  -0.145  1.00  0.00     0.009 A 
HETATM   17  C   UNL     1      -3.588   4.219   0.607  1.00  0.00     0.001 A 
HETATM   18  C   UNL     1      -4.196   4.136   1.858  1.00  0.00     0.000 A 
HETATM   19  C   UNL     1      -4.588   2.896   2.360  1.00  0.00     0.001 A 
HETATM   20  C   UNL     1      -4.375   1.738   1.610  1.00  0.00     0.009 A 
ENDBRANCH  14  15
ENDBRANCH   3  14
TORSDOF 5
