REMARK  10 active torsions:
REMARK  status: ('A' for Active; 'I' for Inactive)
REMARK    1  A    between atoms: C_2  and  N_3 
REMARK    2  A    between atoms: N_3  and  C_4 
REMARK    3  A    between atoms: N_3  and  C_6 
REMARK    4  A    between atoms: C_6  and  C_7 
REMARK    5  A    between atoms: C_7  and  O_8 
REMARK    6  A    between atoms: O_8  and  C_9 
REMARK    7  A    between atoms: C_9  and  C_11 
REMARK    8  A    between atoms: C_11  and  O_12 
REMARK    9  A    between atoms: C_11  and  C_13 
REMARK   10  A    between atoms: C_11  and  C_19 
ROOT
HETATM    1  C   UNL     1       0.399   0.859   2.180  1.00  0.00     0.201 C 
ENDROOT
BRANCH   1   2
HETATM    2  C   UNL     1       0.655  -0.317   1.176  1.00  0.00     0.303 C 
HETATM    3  O   UNL     1       0.734  -1.508   1.456  1.00  0.00    -0.261 OA
BRANCH   2   4
HETATM    4  O   UNL     1       0.690   0.164  -0.112  1.00  0.00    -0.317 OA
BRANCH   4   5
HETATM    5  C   UNL     1       0.890  -0.848  -1.115  1.00  0.00     0.209 C 
BRANCH   5   6
HETATM    6  C   UNL     1       0.991  -0.156  -2.483  1.00  0.00     0.299 C 
BRANCH   6   7
HETATM    7  N   UNL     1       1.005  -1.069  -3.646  1.00  0.00     0.089 N 
BRANCH   7   8
HETATM    8  C   UNL     1       0.847  -0.297  -4.894  1.00  0.00     0.268 C 
HETATM    9  C   UNL     1      -0.242  -0.913  -5.764  1.00  0.00     0.037 C 
ENDBRANCH   7   8
BRANCH   7  10
HETATM   10  C   UNL     1       2.225  -1.901  -3.658  1.00  0.00     0.268 C 
HETATM   11  C   UNL     1       2.243  -2.965  -4.751  1.00  0.00     0.037 C 
ENDBRANCH   7  10
ENDBRANCH   6   7
ENDBRANCH   5   6
ENDBRANCH   4   5
ENDBRANCH   2   4
ENDBRANCH   1   2
BRANCH   1  12
HETATM   12  O   UNL     1       0.912   2.068   1.571  1.00  0.00    -0.371 OA
HETATM   13  H   UNL     1       0.451   2.134   0.715  1.00  0.00     0.212 HD
ENDBRANCH   1  12
BRANCH   1  14
HETATM   14  C   UNL     1      -1.101   1.117   2.416  1.00  0.00    -0.009 A 
HETATM   15  C   UNL     1      -1.510   2.334   2.999  1.00  0.00     0.011 A 
HETATM   16  C   UNL     1      -2.858   2.603   3.241  1.00  0.00     0.001 A 
HETATM   17  C   UNL     1      -3.826   1.659   2.911  1.00  0.00     0.000 A 
HETATM   18  C   UNL     1      -3.445   0.445   2.347  1.00  0.00     0.001 A 
HETATM   19  C   UNL     1      -2.095   0.173   2.104  1.00  0.00     0.011 A 
ENDBRANCH   1  14
BRANCH   1  20
HETATM   20  C   UNL     1       1.161   0.614   3.493  1.00  0.00    -0.009 A 
HETATM   21  C   UNL     1       2.324   1.338   3.816  1.00  0.00     0.011 A 
HETATM   22  C   UNL     1       3.015   1.100   5.006  1.00  0.00     0.001 A 
HETATM   23  C   UNL     1       2.562   0.130   5.896  1.00  0.00     0.000 A 
HETATM   24  C   UNL     1       1.418  -0.604   5.595  1.00  0.00     0.001 A 
HETATM   25  C   UNL     1       0.725  -0.366   4.405  1.00  0.00     0.011 A 
ENDBRANCH   1  20
TORSDOF 10
