REMARK  6 active torsions:
REMARK  status: ('A' for Active; 'I' for Inactive)
REMARK    1  A    between atoms: O_2  and  C_3 
REMARK    2  A    between atoms: C_3  and  C_5 
REMARK    3  A    between atoms: C_5  and  N_7 
REMARK       I    between atoms: N_7  and  C_8 
REMARK       I    between atoms: C_8  and  N_10 
REMARK    4  A    between atoms: C_15  and  O_16 
REMARK    5  A    between atoms: C_18  and  O_19 
REMARK    6  A    between atoms: C_23  and  C_24 
ROOT
HETATM    1  N   UNL     1       3.038  -1.904  -1.094  1.00  0.00    -0.230 NA
HETATM    2  C   UNL     1       2.199  -0.835  -1.301  1.00  0.00     0.298 C 
HETATM    3  O   UNL     1       2.333  -0.080  -2.258  1.00  0.00    -0.254 OA
HETATM    4  N   UNL     1       1.219  -0.689  -0.322  1.00  0.00    -0.326 N 
HETATM    5  C   UNL     1       0.621  -1.871   0.306  1.00  0.00     0.133 C 
HETATM    6  C   UNL     1      -0.156  -1.548   1.577  1.00  0.00     0.059 C 
HETATM    7  C   UNL     1      -1.206  -0.516   1.285  1.00  0.00    -0.045 A 
HETATM    8  C   UNL     1      -2.425  -0.516   1.979  1.00  0.00     0.047 A 
HETATM    9  C   UNL     1      -3.405   0.439   1.700  1.00  0.00     0.102 A 
HETATM   10  C   UNL     1      -3.132   1.442   0.768  1.00  0.00     0.102 A 
HETATM   11  C   UNL     1      -1.924   1.444   0.065  1.00  0.00     0.049 A 
HETATM   12  C   UNL     1      -0.942   0.473   0.323  1.00  0.00    -0.022 A 
HETATM   13  C   UNL     1       0.399   0.537  -0.412  1.00  0.00     0.155 C 
HETATM   14  H   UNL     1       3.276  -1.997  -0.116  1.00  0.00     0.133 HD
ENDROOT
BRANCH  13  15
HETATM   15  C   UNL     1       1.218   1.748   0.053  1.00  0.00    -0.031 A 
HETATM   16  C   UNL     1       1.641   1.878   1.387  1.00  0.00     0.009 A 
HETATM   17  C   UNL     1       2.385   2.988   1.794  1.00  0.00     0.001 A 
HETATM   18  C   UNL     1       2.719   3.979   0.875  1.00  0.00     0.000 A 
HETATM   19  C   UNL     1       2.316   3.861  -0.453  1.00  0.00     0.001 A 
HETATM   20  C   UNL     1       1.572   2.752  -0.862  1.00  0.00     0.009 A 
ENDBRANCH  13  15
BRANCH   1  21
HETATM   21  C   UNL     1       4.175  -2.094  -2.001  1.00  0.00     0.160 C 
HETATM   22  C   UNL     1       4.625  -3.549  -1.951  1.00  0.00     0.037 C 
BRANCH  21  23
HETATM   23  C   UNL     1       5.372  -1.189  -1.658  1.00  0.00     0.276 C 
HETATM   24  O   UNL     1       6.387  -1.112  -2.342  1.00  0.00    -0.263 OA
BRANCH  23  25
HETATM   25  O   UNL     1       5.199  -0.558  -0.460  1.00  0.00    -0.325 OA
HETATM   26  C   UNL     1       6.250   0.344  -0.118  1.00  0.00     0.213 C 
ENDBRANCH  23  25
ENDBRANCH  21  23
ENDBRANCH   1  21
BRANCH  10  27
HETATM   27  O   UNL     1      -4.026   2.444   0.491  1.00  0.00    -0.353 OA
HETATM   28  C   UNL     1      -3.789   3.551   1.364  1.00  0.00     0.210 C 
ENDBRANCH  10  27
BRANCH   9  29
HETATM   29  O   UNL     1      -4.554   0.324   2.438  1.00  0.00    -0.353 OA
HETATM   30  C   UNL     1      -5.752   0.518   1.690  1.00  0.00     0.210 C 
ENDBRANCH   9  29
TORSDOF 6
