REMARK  5 active torsions:
REMARK  status: ('A' for Active; 'I' for Inactive)
REMARK    1  A    between atoms: C_5  and  C_6 
REMARK    2  A    between atoms: C_6  and  N_7 
REMARK    3  A    between atoms: N_7  and  C_8 
REMARK    4  A    between atoms: N_16  and  S_19 
REMARK    5  A    between atoms: S_19  and  C_22 
ROOT
HETATM    1  C   UNL     1       0.711   2.576   0.643  1.00  0.00     0.134 C 
HETATM    2  N   UNL     1       1.711   3.372   0.859  1.00  0.00    -0.273 NA
HETATM    3  C   UNL     1       1.545   4.549   1.706  1.00  0.00     0.181 C 
HETATM    4  C   UNL     1       0.095   4.996   1.819  1.00  0.00     0.292 C 
HETATM    5  N   UNL     1      -0.725   3.874   2.283  1.00  0.00     0.102 N 
HETATM    6  C   UNL     1      -0.730   2.772   1.274  1.00  0.00     0.219 C 
HETATM    7  C   UNL     1      -1.764   3.094   0.174  1.00  0.00     0.070 C 
HETATM    8  C   UNL     1      -3.024   2.254   0.312  1.00  0.00     0.138 C 
HETATM    9  N   UNL     1      -2.707   0.805   0.254  1.00  0.00    -0.307 N 
HETATM   10  C   UNL     1      -1.665   0.364   1.221  1.00  0.00     0.138 C 
HETATM   11  C   UNL     1      -1.123   1.504   2.075  1.00  0.00     0.070 C 
HETATM   12  H   UNL     1      -0.285   3.519   3.135  1.00  0.00     0.317 HD
ENDROOT
BRANCH   1  13
HETATM   13  N   UNL     1       0.908   1.490  -0.189  1.00  0.00    -0.372 N 
HETATM   14  H   UNL     1       0.104   1.194  -0.752  1.00  0.00     0.161 HD
BRANCH  13  15
HETATM   15  C   UNL     1       2.152   1.302  -0.912  1.00  0.00     0.159 C 
BRANCH  15  16
HETATM   16  C   UNL     1       2.217  -0.117  -1.431  1.00  0.00    -0.040 A 
HETATM   17  C   UNL     1       1.932  -0.404  -2.775  1.00  0.00     0.012 A 
HETATM   18  C   UNL     1       1.984  -1.718  -3.242  1.00  0.00     0.043 A 
HETATM   19  C   UNL     1       2.312  -2.746  -2.365  1.00  0.00     0.116 A 
HETATM   20  F   UNL     1       2.347  -4.008  -2.811  1.00  0.00    -0.206 F 
HETATM   21  C   UNL     1       2.586  -2.486  -1.028  1.00  0.00     0.043 A 
HETATM   22  C   UNL     1       2.536  -1.172  -0.559  1.00  0.00     0.012 A 
ENDBRANCH  15  16
ENDBRANCH  13  15
ENDBRANCH   1  13
BRANCH   9  23
HETATM   23  S   UNL     1      -2.596   0.159  -1.321  1.00  0.00     0.260 S 
HETATM   24  O   UNL     1      -1.264   0.480  -1.798  1.00  0.00    -0.200 OA
HETATM   25  O   UNL     1      -3.772   0.545  -2.068  1.00  0.00    -0.200 OA
BRANCH  23  26
HETATM   26  C   UNL     1      -2.697  -1.590  -1.035  1.00  0.00     0.079 A 
HETATM   27  C   UNL     1      -3.901  -2.133  -0.574  1.00  0.00     0.027 A 
HETATM   28  C   UNL     1      -3.992  -3.507  -0.348  1.00  0.00     0.025 A 
HETATM   29  C   UNL     1      -2.885  -4.325  -0.588  1.00  0.00     0.034 A 
HETATM   30 CL   UNL     1      -3.000  -6.018  -0.305  1.00  0.00    -0.084 Cl
HETATM   31  C   UNL     1      -1.688  -3.781  -1.056  1.00  0.00     0.025 A 
HETATM   32  C   UNL     1      -1.592  -2.407  -1.284  1.00  0.00     0.027 A 
ENDBRANCH  23  26
ENDBRANCH   9  23
TORSDOF 5
