REMARK  4 active torsions:
REMARK  status: ('A' for Active; 'I' for Inactive)
REMARK    1  A    between atoms: C_2  and  C_8 
REMARK       I    between atoms: C_8  and  N_9 
REMARK    2  A    between atoms: N_9  and  C_14 
REMARK    3  A    between atoms: C_13  and  C_17 
REMARK    4  A    between atoms: C_21  and  N_25 
ROOT
HETATM    1  C   UNL     1       2.173   1.734   2.429  1.00  0.00     0.045 A 
HETATM    2  C   UNL     1       2.856   0.787   1.671  1.00  0.00     0.125 A 
HETATM    3  C   UNL     1       0.853   2.057   2.117  1.00  0.00     0.032 A 
HETATM    4  C   UNL     1       2.257   0.138   0.578  1.00  0.00     0.013 A 
HETATM    5  C   UNL     1       0.215   1.428   1.050  1.00  0.00     0.035 A 
HETATM    6  C   UNL     1       0.918   0.473   0.294  1.00  0.00     0.042 A 
HETATM    7  F   UNL     1       4.111   0.484   2.036  1.00  0.00    -0.205 F 
ENDROOT
BRANCH   4   8
HETATM    8  C   UNL     1       3.054  -0.919  -0.222  1.00  0.00     0.098 C 
HETATM    9  C   UNL     1       3.155  -2.147   0.674  1.00  0.00     0.201 C 
HETATM   10  S   UNL     1       4.192  -3.383  -0.033  1.00  0.00     0.237 S 
HETATM   11  N   UNL     1       5.462  -2.481  -0.655  1.00  0.00    -0.254 N 
HETATM   12  O   UNL     1       3.501  -4.023  -1.133  1.00  0.00    -0.205 OA
HETATM   13  O   UNL     1       4.725  -4.189   1.049  1.00  0.00    -0.205 OA
HETATM   14  C   UNL     1       5.400  -1.088  -0.751  1.00  0.00     0.184 C 
HETATM   15  C   UNL     1       6.567  -3.306  -1.186  1.00  0.00     0.172 C 
HETATM   16  N   UNL     1       4.370  -0.362  -0.546  1.00  0.00    -0.245 NA
HETATM   17  C   UNL     1       2.380  -1.227  -1.581  1.00  0.00     0.047 C 
BRANCH  14  18
HETATM   18  N   UNL     1       6.570  -0.488  -1.071  1.00  0.00    -0.272 NA
HETATM   19  H   UNL     1       7.375  -0.885  -0.607  1.00  0.00     0.127 HD
HETATM   20  H   UNL     1       6.504   0.512  -0.912  1.00  0.00     0.127 HD
ENDBRANCH  14  18
ENDBRANCH   4   8
BRANCH   5  21
HETATM   21  N   UNL     1      -1.114   1.689   0.675  1.00  0.00    -0.322 N 
HETATM   22  C   UNL     1      -2.014   2.565   1.252  1.00  0.00     0.274 C 
HETATM   23  O   UNL     1      -1.826   3.294   2.218  1.00  0.00    -0.266 OA
HETATM   24  H   UNL     1      -1.492   1.182  -0.124  1.00  0.00     0.169 HD
BRANCH  22  25
HETATM   25  C   UNL     1      -3.348   2.564   0.562  1.00  0.00     0.124 A 
HETATM   26  C   UNL     1      -4.371   3.393   1.016  1.00  0.00     0.040 A 
HETATM   27  C   UNL     1      -5.593   3.360   0.348  1.00  0.00     0.046 A 
HETATM   28  C   UNL     1      -5.743   2.508  -0.737  1.00  0.00     0.133 A 
HETATM   29  C   UNL     1      -4.675   1.715  -1.125  1.00  0.00     0.159 A 
HETATM   30  F   UNL     1      -6.905   2.455  -1.398  1.00  0.00    -0.205 F 
HETATM   31  N   UNL     1      -3.470   1.716  -0.503  1.00  0.00    -0.252 NA
ENDBRANCH  22  25
ENDBRANCH   5  21
TORSDOF 4
