REMARK  7 active torsions:
REMARK  status: ('A' for Active; 'I' for Inactive)
REMARK    1  A    between atoms: O_2  and  C_3 
REMARK    2  A    between atoms: C_8  and  C_9 
REMARK    3  A    between atoms: N_15  and  C_16 
REMARK    4  A    between atoms: C_16  and  C_17 
REMARK    5  A    between atoms: C_17  and  C_18 
REMARK    6  A    between atoms: C_18  and  O_19 
REMARK    7  A    between atoms: O_19  and  C_20 
ROOT
HETATM    1  C   UNL     1      -3.972   0.242  -0.581  1.00  0.00     0.075 C 
HETATM    2  C   UNL     1      -2.890   1.350  -0.649  1.00  0.00     0.142 C 
HETATM    3  N   UNL     1      -1.505   0.911  -0.927  1.00  0.00    -0.327 N 
HETATM    4  C   UNL     1      -0.605   1.867  -1.386  1.00  0.00     0.239 C 
HETATM    5  O   UNL     1      -0.949   2.957  -1.839  1.00  0.00    -0.271 OA
HETATM    6  C   UNL     1       0.861   1.440  -1.385  1.00  0.00     0.228 C 
HETATM    7  N   UNL     1       1.183   0.558  -0.264  1.00  0.00    -0.341 N 
HETATM    8  C   UNL     1       0.344  -0.523   0.019  1.00  0.00     0.254 C 
HETATM    9  O   UNL     1       0.736  -1.493   0.675  1.00  0.00    -0.270 OA
HETATM   10  C   UNL     1      -1.055  -0.490  -0.691  1.00  0.00     0.155 C 
HETATM   11  C   UNL     1      -0.932  -1.236  -2.035  1.00  0.00     0.056 C 
HETATM   12  C   UNL     1      -2.094  -1.197   0.152  1.00  0.00     0.056 A 
HETATM   13  N   UNL     1      -1.847  -2.275   0.961  1.00  0.00    -0.356 N 
HETATM   14  C   UNL     1      -3.028  -2.779   1.452  1.00  0.00     0.043 A 
HETATM   15  C   UNL     1      -3.248  -3.890   2.276  1.00  0.00     0.030 A 
HETATM   16  C   UNL     1      -4.568  -4.201   2.611  1.00  0.00     0.002 A 
HETATM   17  C   UNL     1      -5.624  -3.430   2.137  1.00  0.00     0.001 A 
HETATM   18  C   UNL     1      -5.385  -2.320   1.317  1.00  0.00     0.014 A 
HETATM   19  C   UNL     1      -4.062  -1.971   0.969  1.00  0.00    -0.000 A 
HETATM   20  C   UNL     1      -3.454  -0.932   0.196  1.00  0.00    -0.010 A 
HETATM   21  H   UNL     1      -0.925  -2.656   1.149  1.00  0.00     0.166 HD
ENDROOT
BRANCH   1  22
HETATM   22  C   UNL     1      -5.287   0.727   0.001  1.00  0.00    -0.015 A 
HETATM   23  C   UNL     1      -5.426   1.256   1.299  1.00  0.00     0.075 A 
HETATM   24  C   UNL     1      -6.667   1.723   1.748  1.00  0.00     0.037 A 
HETATM   25  C   UNL     1      -7.791   1.639   0.927  1.00  0.00     0.003 A 
HETATM   26  C   UNL     1      -7.677   1.103  -0.351  1.00  0.00     0.001 A 
HETATM   27  C   UNL     1      -6.437   0.657  -0.811  1.00  0.00     0.011 A 
BRANCH  23  28
HETATM   28  O   UNL     1      -4.306   1.355   2.083  1.00  0.00    -0.355 OA
HETATM   29  C   UNL     1      -4.489   0.873   3.412  1.00  0.00     0.210 C 
ENDBRANCH  23  28
ENDBRANCH   1  22
BRANCH   7  30
HETATM   30  C   UNL     1       2.565   0.522   0.205  1.00  0.00     0.128 C 
BRANCH  30  31
HETATM   31  C   UNL     1       3.489  -0.207  -0.765  1.00  0.00     0.046 C 
BRANCH  31  32
HETATM   32  C   UNL     1       4.903  -0.318  -0.210  1.00  0.00     0.169 C 
BRANCH  32  33
HETATM   33  O   UNL     1       5.718  -0.936  -1.204  1.00  0.00    -0.387 OA
BRANCH  33  34
HETATM   34  C   UNL     1       7.080  -1.106  -0.802  1.00  0.00     0.113 C 
HETATM   35  C   UNL     1       7.907  -1.246  -2.075  1.00  0.00     0.039 C 
HETATM   36  C   UNL     1       7.231  -2.352   0.065  1.00  0.00     0.039 C 
ENDBRANCH  33  34
ENDBRANCH  32  33
ENDBRANCH  31  32
ENDBRANCH  30  31
ENDBRANCH   7  30
TORSDOF 7
