REMARK  5 active torsions:
REMARK  status: ('A' for Active; 'I' for Inactive)
REMARK    1  A    between atoms: C_2  and  C_10 
REMARK    2  A    between atoms: C_5  and  C_7 
REMARK       I    between atoms: C_10  and  N_11 
REMARK    3  A    between atoms: N_11  and  C_16 
REMARK    4  A    between atoms: C_15  and  C_19 
REMARK    5  A    between atoms: C_23  and  N_26 
ROOT
HETATM    1  C   UNL     1       3.761  -1.630   1.817  1.00  0.00     0.045 A 
HETATM    2  C   UNL     1       3.725  -2.274   0.582  1.00  0.00     0.125 A 
HETATM    3  C   UNL     1       2.786  -0.692   2.155  1.00  0.00     0.032 A 
HETATM    4  C   UNL     1       2.717  -2.013  -0.352  1.00  0.00     0.015 A 
HETATM    5  C   UNL     1       1.771  -0.391   1.251  1.00  0.00     0.035 A 
HETATM    6  C   UNL     1       1.748  -1.048   0.010  1.00  0.00     0.042 A 
HETATM    7  F   UNL     1       4.717  -3.132   0.314  1.00  0.00    -0.205 F 
ENDROOT
BRANCH   4   8
HETATM    8  C   UNL     1       2.623  -2.673  -1.741  1.00  0.00     0.114 C 
HETATM    9  C   UNL     1       3.260  -1.737  -2.788  1.00  0.00     0.061 C 
HETATM   10  C   UNL     1       2.673  -1.922  -4.182  1.00  0.00     0.092 C 
HETATM   11  C   UNL     1       4.735  -2.157  -2.720  1.00  0.00     0.125 C 
HETATM   12  S   UNL     1       0.923  -1.512  -4.128  1.00  0.00    -0.092 SA
HETATM   13  C   UNL     1       0.472  -2.657  -2.915  1.00  0.00     0.156 C 
HETATM   14  N   UNL     1       1.223  -3.072  -1.972  1.00  0.00    -0.248 NA
HETATM   15  O   UNL     1       4.733  -3.579  -2.543  1.00  0.00    -0.383 OA
HETATM   16  C   UNL     1       5.608  -1.799  -3.911  1.00  0.00     0.040 C 
HETATM   17  C   UNL     1       3.475  -3.952  -1.949  1.00  0.00     0.207 C 
BRANCH  13  18
HETATM   18  N   UNL     1      -0.809  -3.080  -3.019  1.00  0.00    -0.379 N 
HETATM   19  H   UNL     1      -1.436  -2.450  -3.502  1.00  0.00     0.158 HD
HETATM   20  H   UNL     1      -1.174  -3.488  -2.167  1.00  0.00     0.158 HD
ENDBRANCH  13  18
ENDBRANCH   4   8
BRANCH   5  21
HETATM   21  N   UNL     1       0.752   0.543   1.502  1.00  0.00    -0.322 N 
HETATM   22  C   UNL     1       0.558   1.316   2.631  1.00  0.00     0.276 C 
HETATM   23  O   UNL     1       1.247   1.344   3.642  1.00  0.00    -0.266 OA
HETATM   24  H   UNL     1       0.053   0.684   0.774  1.00  0.00     0.169 HD
BRANCH  22  25
HETATM   25  C   UNL     1      -0.645   2.193   2.536  1.00  0.00     0.141 A 
HETATM   26  C   UNL     1      -0.986   3.032   3.585  1.00  0.00     0.154 A 
HETATM   27  N   UNL     1      -2.074   3.845   3.537  1.00  0.00    -0.256 NA
HETATM   28  C   UNL     1      -2.813   3.788   2.392  1.00  0.00     0.115 A 
HETATM   29  C   UNL     1      -2.459   2.940   1.345  1.00  0.00     0.150 A 
HETATM   30  N   UNL     1      -1.375   2.124   1.384  1.00  0.00    -0.252 NA
BRANCH  28  31
HETATM   31  C   UNL     1      -4.038   4.653   2.249  1.00  0.00     0.406 C 
HETATM   32  F   UNL     1      -3.956   5.495   1.178  1.00  0.00    -0.207 F 
HETATM   33  F   UNL     1      -5.171   3.920   2.048  1.00  0.00    -0.207 F 
ENDBRANCH  28  31
ENDBRANCH  22  25
ENDBRANCH   5  21
TORSDOF 5
