REMARK  8 active torsions:
REMARK  status: ('A' for Active; 'I' for Inactive)
REMARK    1  A    between atoms: C_8  and  N_9 
REMARK       I    between atoms: N_9  and  C_10 
REMARK    2  A    between atoms: C_10  and  C_12 
REMARK    3  A    between atoms: C_12  and  C_13 
REMARK    4  A    between atoms: C_12  and  N_23 
REMARK    5  A    between atoms: C_13  and  C_14 
REMARK       I    between atoms: N_23  and  C_24 
REMARK    6  A    between atoms: C_24  and  O_26 
REMARK    7  A    between atoms: O_26  and  C_27 
REMARK    8  A    between atoms: C_27  and  C_28 
ROOT
HETATM    1  C   UNL     1       0.523   1.137   0.400  1.00  0.00     0.183 C 
ENDROOT
BRANCH   1   2
HETATM    2  C   UNL     1      -0.965   0.912   0.087  1.00  0.00     0.245 C 
HETATM    3  N   UNL     1      -1.372  -0.391   0.328  1.00  0.00    -0.324 N 
HETATM    4  H   UNL     1      -0.625  -1.075   0.273  1.00  0.00     0.169 HD
HETATM    5  O   UNL     1      -1.644   1.794  -0.434  1.00  0.00    -0.271 OA
BRANCH   3   6
HETATM    6  C   UNL     1      -2.695  -0.895   0.225  1.00  0.00     0.046 A 
HETATM    7  C   UNL     1      -2.848  -2.233  -0.217  1.00  0.00    -0.035 A 
HETATM    8  C   UNL     1      -1.672  -3.110  -0.562  1.00  0.00     0.050 C 
HETATM    9  C   UNL     1      -4.134  -2.779  -0.368  1.00  0.00     0.009 A 
HETATM   10  C   UNL     1      -5.263  -2.026  -0.078  1.00  0.00     0.001 A 
HETATM   11  C   UNL     1      -5.117  -0.730   0.403  1.00  0.00     0.009 A 
HETATM   12  C   UNL     1      -3.843  -0.160   0.595  1.00  0.00    -0.035 A 
HETATM   13  C   UNL     1      -3.821   1.200   1.241  1.00  0.00     0.050 C 
ENDBRANCH   3   6
ENDBRANCH   1   2
BRANCH   1  14
HETATM   14  C   UNL     1       0.677   2.499   1.095  1.00  0.00     0.076 C 
BRANCH  14  15
HETATM   15  C   UNL     1       2.047   2.705   1.669  1.00  0.00    -0.028 A 
HETATM   16  C   UNL     1       2.496   2.245   2.892  1.00  0.00     0.096 A 
HETATM   17  N   UNL     1       3.797   2.641   3.049  1.00  0.00    -0.365 N 
HETATM   18  C   UNL     1       4.212   3.357   1.952  1.00  0.00     0.042 A 
HETATM   19  H   UNL     1       4.375   2.444   3.855  1.00  0.00     0.165 HD
HETATM   20  C   UNL     1       5.450   3.953   1.681  1.00  0.00     0.030 A 
HETATM   21  C   UNL     1       3.134   3.418   1.068  1.00  0.00    -0.002 A 
HETATM   22  C   UNL     1       5.591   4.634   0.469  1.00  0.00     0.002 A 
HETATM   23  C   UNL     1       4.534   4.714  -0.434  1.00  0.00     0.001 A 
HETATM   24  C   UNL     1       3.303   4.112  -0.147  1.00  0.00     0.014 A 
ENDBRANCH  14  15
ENDBRANCH   1  14
BRANCH   1  25
HETATM   25  N   UNL     1       1.242   1.085  -0.872  1.00  0.00    -0.323 N 
HETATM   26  C   UNL     1       1.753  -0.030  -1.457  1.00  0.00     0.361 C 
HETATM   27  O   UNL     1       2.260  -0.006  -2.569  1.00  0.00    -0.238 OA
HETATM   28  H   UNL     1       1.191   1.887  -1.487  1.00  0.00     0.165 HD
BRANCH  26  29
HETATM   29  O   UNL     1       1.622  -1.135  -0.684  1.00  0.00    -0.299 OA
BRANCH  29  30
HETATM   30  C   UNL     1       2.232  -2.298  -1.255  1.00  0.00     0.219 C 
BRANCH  30  31
HETATM   31  C   UNL     1       1.990  -3.475  -0.341  1.00  0.00    -0.034 A 
HETATM   32  C   UNL     1       2.198  -3.367   1.042  1.00  0.00     0.009 A 
HETATM   33  C   UNL     1       1.984  -4.462   1.879  1.00  0.00     0.001 A 
HETATM   34  C   UNL     1       1.572  -5.680   1.343  1.00  0.00     0.000 A 
HETATM   35  C   UNL     1       1.379  -5.806  -0.031  1.00  0.00     0.001 A 
HETATM   36  C   UNL     1       1.593  -4.711  -0.871  1.00  0.00     0.009 A 
ENDBRANCH  30  31
ENDBRANCH  29  30
ENDBRANCH  26  29
ENDBRANCH   1  25
TORSDOF 8
