@<TRIPOS>MOLECULE
complex.pdb
55 57 1 0 0
SMALL
NO_CHARGES


@<TRIPOS>ATOM
      1 N         -10.3030   -8.0410   -1.4680 N.3       1 UNL    0.0000
      2 C          -9.4450   -7.7980   -2.5140 C.2       1 UNL    0.0000
      3 O          -8.5790   -8.6000   -2.8430 O.2       1 UNL    0.0000
      4 N          -9.6430   -6.5650   -3.1320 N.am      1 UNL    0.0000
      5 C         -10.9950   -6.0110   -3.2590 C.3       1 UNL    0.0000
      6 C         -11.0060   -4.5320   -3.6270 C.3       1 UNL    0.0000
      7 C         -10.2240   -4.3140   -4.8890 C.ar      1 UNL    0.0000
      8 C         -10.5880   -3.3050   -5.7930 C.ar      1 UNL    0.0000
      9 C          -9.8650   -3.1090   -6.9720 C.ar      1 UNL    0.0000
     10 C          -8.7290   -3.8840   -7.2110 C.ar      1 UNL    0.0000
     11 C          -8.3650   -4.8980   -6.3200 C.ar      1 UNL    0.0000
     12 C          -9.1010   -5.1180   -5.1440 C.ar      1 UNL    0.0000
     13 C          -8.6420   -6.1890   -4.1520 C.3       1 UNL    0.0000
     14 H         -10.4460   -7.2080   -0.9120 H         1 UNL    0.0000
     15 C          -7.3320   -5.7760   -3.4700 C.ar      1 UNL    0.0000
     16 C          -6.1570   -6.5320   -3.6200 C.ar      1 UNL    0.0000
     17 C          -4.9720   -6.1420   -2.9910 C.ar      1 UNL    0.0000
     18 C          -4.9450   -4.9920   -2.2070 C.ar      1 UNL    0.0000
     19 C          -6.0980   -4.2250   -2.0560 C.ar      1 UNL    0.0000
     20 C          -7.2830   -4.6130   -2.6840 C.ar      1 UNL    0.0000
     21 C         -10.1190   -9.2600   -0.6730 C.3       1 UNL    0.0000
     22 C         -11.1950  -10.2730   -1.0440 C.3       1 UNL    0.0000
     23 C         -10.1780   -9.0000    0.8430 C.2       1 UNL    0.0000
     24 O         -11.1870   -9.1540    1.5230 O.2       1 UNL    0.0000
     25 O          -9.0000   -8.4950    1.3130 O.3       1 UNL    0.0000
     26 C          -8.7140   -8.8430    2.6670 C.3       1 UNL    0.0000
     27 O          -7.9410   -3.7030   -8.3180 O.3       1 UNL    0.0000
     28 C          -7.2510   -2.4550   -8.2150 C.3       1 UNL    0.0000
     29 O         -10.3280   -2.1000   -7.7750 O.3       1 UNL    0.0000
     30 C         -10.9630   -1.0350   -7.0710 C.3       1 UNL    0.0000
     31 HC2       -11.5107   -6.1347   -2.3067 H         1 UNL    0.0000
     32 HC3       -11.5331   -6.5684   -4.0257 H         1 UNL    0.0000
     33 HC4       -12.0347   -4.2050   -3.7783 H         1 UNL    0.0000
     34 HC5       -10.5576   -3.9543   -2.8187 H         1 UNL    0.0000
     35 HC        -11.4362   -2.6730   -5.5751 H         1 UNL    0.0000
     36 HC1        -7.5087   -5.5189   -6.5383 H         1 UNL    0.0000
     37 HC6        -8.4279   -7.0868   -4.7318 H         1 UNL    0.0000
     38 HC7        -6.1701   -7.4244   -4.2282 H         1 UNL    0.0000
     39 HC8        -4.0764   -6.7331   -3.1131 H         1 UNL    0.0000
     40 HC9        -4.0303   -4.6945   -1.7159 H         1 UNL    0.0000
     41 HC10       -6.0752   -3.3295   -1.4527 H         1 UNL    0.0000
     42 HC11       -8.1722   -4.0120   -2.5640 H         1 UNL    0.0000
     43 HC12       -9.1450   -9.6861   -0.9133 H         1 UNL    0.0000
     44 HC13       -6.6247   -2.3118   -9.0955 H         1 UNL    0.0000
     45 HC14       -6.6264   -2.4581   -7.3217 H         1 UNL    0.0000
     46 HC15       -7.9757   -1.6435   -8.1487 H         1 UNL    0.0000
     47 HC16      -11.0600  -11.1797   -0.4542 H         1 UNL    0.0000
     48 HC17      -12.1783   -9.8497   -0.8391 H         1 UNL    0.0000
     49 HC18      -11.1169  -10.5141   -2.1041 H         1 UNL    0.0000
     50 HC19      -11.0484   -0.1668   -7.7245 H         1 UNL    0.0000
     51 HC20      -11.9572   -1.3507   -6.7549 H         1 UNL    0.0000
     52 HC21      -10.3692   -0.7735   -6.1952 H         1 UNL    0.0000
     53 HC22       -7.7617   -8.4027    2.9625 H         1 UNL    0.0000
     54 HC23       -9.5053   -8.4645    3.3141 H         1 UNL    0.0000
     55 HC24       -8.6570   -9.9276    2.7591 H         1 UNL    0.0000
@<TRIPOS>BOND
     1    1    2 1
     2    1   14 1
     3    1   21 1
     4    2    3 2
     5    2    4 am
     6    4    5 1
     7    4   13 1
     8    5    6 1
     9    6    7 1
    10    7    8 ar
    11    7   12 ar
    12    8    9 ar
    13    9   10 ar
    14    9   29 1
    15   10   11 ar
    16   10   27 1
    17   11   12 ar
    18   12   13 1
    19   13   15 1
    20   15   16 ar
    21   15   20 ar
    22   16   17 ar
    23   17   18 ar
    24   18   19 ar
    25   19   20 ar
    26   21   22 1
    27   21   23 1
    28   23   24 2
    29   23   25 1
    30   25   26 1
    31   27   28 1
    32   29   30 1
    33   31    5 1
    34   32    5 1
    35   33    6 1
    36   34    6 1
    37   35    8 1
    38   36   11 1
    39   37   13 1
    40   38   16 1
    41   39   17 1
    42   40   18 1
    43   41   19 1
    44   42   20 1
    45   43   21 1
    46   44   28 1
    47   45   28 1
    48   46   28 1
    49   47   22 1
    50   48   22 1
    51   49   22 1
    52   50   30 1
    53   51   30 1
    54   52   30 1
    55   53   26 1
    56   54   26 1
    57   55   26 1
@<TRIPOS>SUBSTRUCTURE
     1 UNL     1 RESIDUE           4 A     UNL     0 ROOT
