REMARK  7 active torsions:
REMARK  status: ('A' for Active; 'I' for Inactive)
REMARK    1  A    between atoms: C_3  and  C_4 
REMARK    2  A    between atoms: C_4  and  C_5 
REMARK    3  A    between atoms: C_5  and  C_6 
REMARK       I    between atoms: C_6  and  N_8 
REMARK    4  A    between atoms: N_8  and  C_9 
REMARK    5  A    between atoms: C_9  and  C_10 
REMARK    6  A    between atoms: N_25  and  C_26 
REMARK    7  A    between atoms: C_26  and  C_27 
ROOT
HETATM    1  C   UNL     1      -0.212   0.912   1.076  1.00  0.00     0.311 C 
HETATM    2  N   UNL     1      -1.302   0.850   0.091  1.00  0.00     0.097 N 
HETATM    3  C   UNL     1      -2.278   1.950   0.318  1.00  0.00     0.241 C 
HETATM    4  C   UNL     1      -3.793   1.589   0.241  1.00  0.00     0.158 C 
HETATM    5  N   UNL     1      -4.320   0.712   1.273  1.00  0.00    -0.357 N 
HETATM    6  C   UNL     1      -3.988  -0.597   1.498  1.00  0.00     0.253 C 
HETATM    7  O   UNL     1      -4.864  -1.303   2.005  1.00  0.00    -0.271 OA
HETATM    8  C   UNL     1      -2.537  -1.052   1.289  1.00  0.00     0.347 C 
HETATM    9  C   UNL     1      -1.925  -0.487  -0.006  1.00  0.00     0.267 C 
HETATM   10  C   UNL     1      -0.981  -1.587  -0.521  1.00  0.00     0.069 C 
HETATM   11  C   UNL     1      -1.084  -2.705   0.499  1.00  0.00     0.276 C 
HETATM   12  N   UNL     1      -2.408  -2.522   1.104  1.00  0.00     0.108 N 
HETATM   13  H   UNL     1      -5.304   0.842   1.481  1.00  0.00     0.162 HD
ENDROOT
BRANCH   3  14
HETATM   14  C   UNL     1      -2.045   3.061  -0.741  1.00  0.00     0.047 C 
BRANCH  14  15
HETATM   15  C   UNL     1      -0.637   3.654  -0.775  1.00  0.00     0.105 C 
BRANCH  15  16
HETATM   16  C   UNL     1      -0.545   4.844  -1.711  1.00  0.00     0.217 C 
HETATM   17  O   UNL     1      -1.517   5.382  -2.231  1.00  0.00    -0.274 OA
HETATM   18  N   UNL     1       0.746   5.285  -1.893  1.00  0.00    -0.357 N 
HETATM   19  H   UNL     1       1.515   4.716  -1.565  1.00  0.00     0.162 HD
BRANCH  18  20
HETATM   20  C   UNL     1       1.032   6.368  -2.803  1.00  0.00     0.161 C 
BRANCH  20  21
HETATM   21  C   UNL     1       2.500   6.705  -2.784  1.00  0.00    -0.040 A 
HETATM   22  C   UNL     1       3.379   6.107  -3.701  1.00  0.00     0.012 A 
HETATM   23  C   UNL     1       4.744   6.396  -3.661  1.00  0.00     0.043 A 
HETATM   24  C   UNL     1       5.231   7.275  -2.701  1.00  0.00     0.116 A 
HETATM   25  F   UNL     1       6.542   7.549  -2.662  1.00  0.00    -0.206 F 
HETATM   26  C   UNL     1       4.380   7.869  -1.777  1.00  0.00     0.043 A 
HETATM   27  C   UNL     1       3.014   7.581  -1.815  1.00  0.00     0.012 A 
ENDBRANCH  20  21
ENDBRANCH  18  20
ENDBRANCH  15  16
ENDBRANCH  14  15
ENDBRANCH   3  14
BRANCH  12  28
HETATM   28  C   UNL     1      -2.535  -3.261   2.370  1.00  0.00     0.314 C 
BRANCH  28  29
HETATM   29  C   UNL     1      -2.575  -4.736   2.105  1.00  0.00    -0.002 A 
HETATM   30  C   UNL     1      -1.563  -5.650   2.342  1.00  0.00     0.100 A 
HETATM   31  N   UNL     1      -2.010  -6.892   1.977  1.00  0.00    -0.360 N 
HETATM   32  C   UNL     1      -1.233  -8.107   2.073  1.00  0.00     0.155 C 
HETATM   33  C   UNL     1      -3.305  -6.821   1.513  1.00  0.00     0.044 A 
HETATM   34  C   UNL     1      -4.175  -7.818   1.042  1.00  0.00     0.030 A 
HETATM   35  C   UNL     1      -3.684  -5.477   1.581  1.00  0.00     0.000 A 
HETATM   36  C   UNL     1      -5.456  -7.433   0.633  1.00  0.00     0.002 A 
HETATM   37  C   UNL     1      -5.856  -6.101   0.690  1.00  0.00     0.001 A 
HETATM   38  C   UNL     1      -4.981  -5.117   1.161  1.00  0.00     0.014 A 
ENDBRANCH  28  29
ENDBRANCH  12  28
TORSDOF 7
