REMARK  15 active torsions:
REMARK  status: ('A' for Active; 'I' for Inactive)
REMARK    1  A    between atoms: C_2  and  C_3 
REMARK    2  A    between atoms: C_3  and  C_4 
REMARK    3  A    between atoms: C_4  and  C_5 
REMARK    4  A    between atoms: C_5  and  C_6 
REMARK    5  A    between atoms: C_6  and  C_7 
REMARK    6  A    between atoms: C_7  and  C_8 
REMARK    7  A    between atoms: C_8  and  O_9 
REMARK    8  A    between atoms: O_9  and  C_10 
REMARK    9  A    between atoms: C_10  and  C_12 
REMARK   10  A    between atoms: C_12  and  C_13 
REMARK   11  A    between atoms: C_12  and  N_22 
REMARK   12  A    between atoms: C_13  and  S_14 
REMARK   13  A    between atoms: S_14  and  C_15 
REMARK   14  A    between atoms: C_15  and  C_16 
REMARK       I    between atoms: N_22  and  C_23 
REMARK   15  A    between atoms: C_23  and  C_25 
ROOT
HETATM    1  C   UNL     1      -1.965  -1.048   0.715  1.00  0.00     0.194 C 
ENDROOT
BRANCH   1   2
HETATM    2  C   UNL     1      -1.292  -1.922  -0.345  1.00  0.00     0.282 C 
HETATM    3  O   UNL     1      -1.772  -2.170  -1.447  1.00  0.00    -0.263 OA
BRANCH   2   4
HETATM    4  O   UNL     1      -0.050  -2.303   0.069  1.00  0.00    -0.320 OA
BRANCH   4   5
HETATM    5  C   UNL     1       0.657  -3.128  -0.867  1.00  0.00     0.178 C 
BRANCH   5   6
HETATM    6  C   UNL     1       2.041  -3.411  -0.294  1.00  0.00     0.027 C 
BRANCH   6   7
HETATM    7  C   UNL     1       2.871  -4.284  -1.232  1.00  0.00     0.002 C 
BRANCH   7   8
HETATM    8  C   UNL     1       4.270  -4.536  -0.666  1.00  0.00     0.000 C 
BRANCH   8   9
HETATM    9  C   UNL     1       5.102  -5.409  -1.608  1.00  0.00     0.000 C 
BRANCH   9  10
HETATM   10  C   UNL     1       6.508  -5.643  -1.053  1.00  0.00    -0.000 C 
BRANCH  10  11
HETATM   11  C   UNL     1       7.339  -6.515  -1.994  1.00  0.00    -0.005 C 
HETATM   12  C   UNL     1       8.741  -6.741  -1.451  1.00  0.00     0.005 C 
ENDBRANCH  10  11
ENDBRANCH   9  10
ENDBRANCH   8   9
ENDBRANCH   7   8
ENDBRANCH   6   7
ENDBRANCH   5   6
ENDBRANCH   4   5
ENDBRANCH   2   4
ENDBRANCH   1   2
BRANCH   1  13
HETATM   13  C   UNL     1      -1.532   0.398   0.442  1.00  0.00     0.109 C 
BRANCH  13  14
HETATM   14  S   UNL     1      -2.263   1.586   1.623  1.00  0.00    -0.162 SA
BRANCH  14  15
HETATM   15  C   UNL     1      -1.510   3.109   0.974  1.00  0.00     0.112 C 
BRANCH  15  16
HETATM   16  C   UNL     1      -1.977   4.325   1.731  1.00  0.00    -0.049 A 
HETATM   17  C   UNL     1      -1.282   4.769   2.866  1.00  0.00     0.008 A 
HETATM   18  C   UNL     1      -1.719   5.893   3.569  1.00  0.00     0.001 A 
HETATM   19  C   UNL     1      -2.857   6.580   3.151  1.00  0.00     0.000 A 
HETATM   20  C   UNL     1      -3.562   6.142   2.031  1.00  0.00     0.001 A 
HETATM   21  C   UNL     1      -3.127   5.019   1.326  1.00  0.00     0.008 A 
ENDBRANCH  15  16
ENDBRANCH  14  15
ENDBRANCH  13  14
ENDBRANCH   1  13
BRANCH   1  22
HETATM   22  N   UNL     1      -3.416  -1.228   0.622  1.00  0.00    -0.342 N 
HETATM   23  C   UNL     1      -4.022  -2.301   1.240  1.00  0.00     0.252 C 
HETATM   24  O   UNL     1      -3.409  -3.117   1.919  1.00  0.00    -0.268 OA
HETATM   25  H   UNL     1      -3.885  -0.822  -0.177  1.00  0.00     0.163 HD
BRANCH  23  26
HETATM   26  C   UNL     1      -5.481  -2.459   0.994  1.00  0.00     0.032 A 
HETATM   27  C   UNL     1      -6.308  -1.356   0.743  1.00  0.00     0.017 A 
HETATM   28  C   UNL     1      -7.674  -1.544   0.521  1.00  0.00     0.001 A 
HETATM   29  C   UNL     1      -8.217  -2.829   0.554  1.00  0.00     0.000 A 
HETATM   30  C   UNL     1      -7.400  -3.928   0.819  1.00  0.00     0.001 A 
HETATM   31  C   UNL     1      -6.034  -3.744   1.044  1.00  0.00     0.017 A 
ENDBRANCH  23  26
ENDBRANCH   1  22
TORSDOF 15
