REMARK  6 active torsions:
REMARK  status: ('A' for Active; 'I' for Inactive)
REMARK    1  A    between atoms: O_2  and  C_3 
REMARK    2  A    between atoms: C_6  and  C_9 
REMARK    3  A    between atoms: C_15  and  C_21 
REMARK       I    between atoms: C_21  and  N_23 
REMARK    4  A    between atoms: N_23  and  C_24 
REMARK    5  A    between atoms: C_24  and  C_25 
REMARK    6  A    between atoms: C_25  and  C_26 
ROOT
HETATM    1  C   UNL     1      -3.736   3.707  -1.551  1.00  0.00     0.036 C 
HETATM    2  C   UNL     1      -2.850   3.244  -0.647  1.00  0.00     0.074 C 
HETATM    3  S   UNL     1      -1.273   3.969  -0.606  1.00  0.00    -0.083 SA
HETATM    4  C   UNL     1      -0.281   2.602  -0.067  1.00  0.00     0.032 A 
HETATM    5  C   UNL     1       1.105   2.668  -0.266  1.00  0.00     0.022 A 
HETATM    6  C   UNL     1       1.944   1.649   0.195  1.00  0.00     0.018 A 
HETATM    7  C   UNL     1       1.399   0.550   0.866  1.00  0.00     0.034 A 
HETATM    8  C   UNL     1       0.017   0.491   1.087  1.00  0.00     0.048 A 
HETATM    9  C   UNL     1      -0.820   1.505   0.609  1.00  0.00     0.053 A 
HETATM   10  N   UNL     1      -2.191   1.393   0.853  1.00  0.00    -0.321 N 
HETATM   11  C   UNL     1      -3.190   2.182   0.357  1.00  0.00     0.263 C 
HETATM   12  O   UNL     1      -4.341   1.965   0.734  1.00  0.00    -0.267 OA
HETATM   13  H   UNL     1      -2.527   0.649   1.453  1.00  0.00     0.169 HD
ENDROOT
BRANCH   7  14
HETATM   14  C   UNL     1       2.246  -0.556   1.392  1.00  0.00     0.251 C 
HETATM   15  O   UNL     1       1.852  -1.229   2.337  1.00  0.00    -0.268 OA
HETATM   16  N   UNL     1       3.439  -0.782   0.736  1.00  0.00    -0.357 N 
HETATM   17  H   UNL     1       3.548  -0.398  -0.193  1.00  0.00     0.162 HD
BRANCH  16  18
HETATM   18  C   UNL     1       4.265  -1.925   1.088  1.00  0.00     0.127 C 
BRANCH  18  19
HETATM   19  C   UNL     1       5.708  -1.743   0.619  1.00  0.00     0.058 C 
BRANCH  19  20
HETATM   20  C   UNL     1       6.570  -2.933   0.960  1.00  0.00    -0.057 A 
HETATM   21  C   UNL     1       7.193  -3.019   2.213  1.00  0.00     0.009 A 
HETATM   22  C   UNL     1       7.978  -4.128   2.537  1.00  0.00     0.024 A 
HETATM   23  C   UNL     1       8.139  -5.157   1.612  1.00  0.00     0.034 A 
HETATM   24 CL   UNL     1       9.106  -6.523   2.011  1.00  0.00    -0.084 Cl
HETATM   25  C   UNL     1       7.520  -5.088   0.366  1.00  0.00     0.024 A 
HETATM   26  C   UNL     1       6.734  -3.979   0.041  1.00  0.00     0.009 A 
ENDBRANCH  19  20
ENDBRANCH  18  19
ENDBRANCH  16  18
ENDBRANCH   7  14
BRANCH   1  27
HETATM   27  C   UNL     1      -5.104   3.238  -1.798  1.00  0.00    -0.035 A 
HETATM   28  C   UNL     1      -5.357   1.938  -2.251  1.00  0.00     0.014 A 
HETATM   29  C   UNL     1      -6.666   1.522  -2.523  1.00  0.00     0.037 A 
HETATM   30  C   UNL     1      -7.733   2.405  -2.355  1.00  0.00     0.068 A 
HETATM   31  C   UNL     1      -7.478   3.707  -1.918  1.00  0.00     0.037 A 
HETATM   32  C   UNL     1      -6.173   4.124  -1.644  1.00  0.00     0.014 A 
BRANCH  30  33
HETATM   33  O   UNL     1      -9.052   2.128  -2.588  1.00  0.00    -0.356 OA
HETATM   34  C   UNL     1      -9.372   0.791  -2.951  1.00  0.00     0.210 C 
ENDBRANCH  30  33
ENDBRANCH   1  27
TORSDOF 6
