@<TRIPOS>MOLECULE
complex.pdb
55 57 1 0 0
SMALL
NO_CHARGES


@<TRIPOS>ATOM
      1 N          -1.7080    8.7030  -11.6550 N.3       1 UNL    0.0000
      2 C          -0.4650    8.8470  -11.0860 C.2       1 UNL    0.0000
      3 O           0.0560    9.9470  -10.9340 O.2       1 UNL    0.0000
      4 N           0.1370    7.6430  -10.7300 N.am      1 UNL    0.0000
      5 C          -0.6780    6.5290  -10.2340 C.3       1 UNL    0.0000
      6 C           0.0640    5.1980  -10.2270 C.3       1 UNL    0.0000
      7 C           1.3290    5.3230   -9.4300 C.ar      1 UNL    0.0000
      8 C           1.8310    4.2330   -8.7040 C.ar      1 UNL    0.0000
      9 C           3.0030    4.3530   -7.9550 C.ar      1 UNL    0.0000
     10 C           3.7140    5.5550   -7.9900 C.ar      1 UNL    0.0000
     11 C           3.2160    6.6490   -8.7030 C.ar      1 UNL    0.0000
     12 C           2.0250    6.5430   -9.4410 C.ar      1 UNL    0.0000
     13 C           1.5370    7.7360  -10.2670 C.3       1 UNL    0.0000
     14 H          -1.7300    7.9150  -12.2880 H         1 UNL    0.0000
     15 C           2.4660    7.9870  -11.4620 C.ar      1 UNL    0.0000
     16 C           3.7080    8.6260  -11.3030 C.ar      1 UNL    0.0000
     17 C           4.5410    8.8490  -12.4020 C.ar      1 UNL    0.0000
     18 C           4.1470    8.4340  -13.6710 C.ar      1 UNL    0.0000
     19 C           2.9240    7.7910  -13.8450 C.ar      1 UNL    0.0000
     20 C           2.0890    7.5670  -12.7470 C.ar      1 UNL    0.0000
     21 C          -2.3910    9.8950  -12.1690 C.3       1 UNL    0.0000
     22 C          -1.5960   10.4710  -13.3340 C.3       1 UNL    0.0000
     23 C          -2.5740   10.9870  -11.1000 C.2       1 UNL    0.0000
     24 O          -2.6210   12.1870  -11.3520 O.2       1 UNL    0.0000
     25 O          -2.5860   10.4620   -9.8400 O.3       1 UNL    0.0000
     26 C          -3.7580   10.7740   -9.0890 C.3       1 UNL    0.0000
     27 O           4.9020    5.7200   -7.3270 O.3       1 UNL    0.0000
     28 C           4.7940    5.1750   -6.0090 C.3       1 UNL    0.0000
     29 O           3.3810    3.2200   -7.2820 O.3       1 UNL    0.0000
     30 C           2.5980    2.0690   -7.5890 C.3       1 UNL    0.0000
     31 HC2        -0.9912    6.7561   -9.2150 H         1 UNL    0.0000
     32 HC3        -1.5641    6.4346  -10.8617 H         1 UNL    0.0000
     33 HC4         0.3085    4.9152  -11.2509 H         1 UNL    0.0000
     34 HC5        -0.5706    4.4319   -9.7814 H         1 UNL    0.0000
     35 HC          1.3049    3.2901   -8.7246 H         1 UNL    0.0000
     36 HC1         3.7525    7.5862   -8.6866 H         1 UNL    0.0000
     37 HC6         1.6014    8.6144   -9.6248 H         1 UNL    0.0000
     38 HC7         4.0215    8.9479  -10.3209 H         1 UNL    0.0000
     39 HC8         5.4915    9.3438  -12.2670 H         1 UNL    0.0000
     40 HC9         4.7898    8.6107  -14.5207 H         1 UNL    0.0000
     41 HC10        2.6207    7.4653  -14.8290 H         1 UNL    0.0000
     42 HC11        1.1432    7.0652  -12.8888 H         1 UNL    0.0000
     43 HC12       -3.3748    9.5997  -12.5339 H         1 UNL    0.0000
     44 HC13        5.3118    5.8245   -5.3032 H         1 UNL    0.0000
     45 HC14        3.7425    5.1021   -5.7313 H         1 UNL    0.0000
     46 HC15        5.2450    4.1829   -5.9880 H         1 UNL    0.0000
     47 HC16       -2.1022   11.3570  -13.7172 H         1 UNL    0.0000
     48 HC17       -0.5971   10.7427  -12.9928 H         1 UNL    0.0000
     49 HC18       -1.5194    9.7255  -14.1255 H         1 UNL    0.0000
     50 HC19        3.0362    1.1928   -7.1111 H         1 UNL    0.0000
     51 HC20        1.5818    2.2127   -7.2219 H         1 UNL    0.0000
     52 HC21        2.5768    1.9214   -8.6688 H         1 UNL    0.0000
     53 HC22       -3.6884   10.3198   -8.1006 H         1 UNL    0.0000
     54 HC23       -3.8461   11.8556   -8.9862 H         1 UNL    0.0000
     55 HC24       -4.6352   10.3856   -9.6064 H         1 UNL    0.0000
@<TRIPOS>BOND
     1    1    2 1
     2    1   14 1
     3    1   21 1
     4    2    3 2
     5    2    4 am
     6    4    5 1
     7    4   13 1
     8    5    6 1
     9    6    7 1
    10    7    8 ar
    11    7   12 ar
    12    8    9 ar
    13    9   10 ar
    14    9   29 1
    15   10   11 ar
    16   10   27 1
    17   11   12 ar
    18   12   13 1
    19   13   15 1
    20   15   16 ar
    21   15   20 ar
    22   16   17 ar
    23   17   18 ar
    24   18   19 ar
    25   19   20 ar
    26   21   22 1
    27   21   23 1
    28   23   24 2
    29   23   25 1
    30   25   26 1
    31   27   28 1
    32   29   30 1
    33   31    5 1
    34   32    5 1
    35   33    6 1
    36   34    6 1
    37   35    8 1
    38   36   11 1
    39   37   13 1
    40   38   16 1
    41   39   17 1
    42   40   18 1
    43   41   19 1
    44   42   20 1
    45   43   21 1
    46   44   28 1
    47   45   28 1
    48   46   28 1
    49   47   22 1
    50   48   22 1
    51   49   22 1
    52   50   30 1
    53   51   30 1
    54   52   30 1
    55   53   26 1
    56   54   26 1
    57   55   26 1
@<TRIPOS>SUBSTRUCTURE
     1 UNL     1 RESIDUE           4 A     UNL     0 ROOT
