REMARK  8 active torsions:
REMARK  status: ('A' for Active; 'I' for Inactive)
REMARK    1  A    between atoms: C_2  and  O_3 
REMARK    2  A    between atoms: O_3  and  C_4 
REMARK       I    between atoms: C_4  and  N_6 
REMARK    3  A    between atoms: N_6  and  C_7 
REMARK    4  A    between atoms: C_7  and  C_8 
REMARK    5  A    between atoms: C_7  and  C_18 
REMARK    6  A    between atoms: C_8  and  C_9 
REMARK       I    between atoms: C_18  and  N_20 
REMARK    7  A    between atoms: N_20  and  C_21 
REMARK    8  A    between atoms: C_24  and  C_27 
ROOT
HETATM    1  C   UNL     1       2.176   0.516  -0.901  1.00  0.00     0.245 C 
HETATM    2  O   UNL     1       1.407   1.453  -1.099  1.00  0.00    -0.271 OA
HETATM    3  N   UNL     1       1.825  -0.705  -0.347  1.00  0.00    -0.325 N 
HETATM    4  H   UNL     1       2.556  -1.409  -0.339  1.00  0.00     0.169 HD
ENDROOT
BRANCH   1   5
HETATM    5  C   UNL     1       3.646   0.552  -1.395  1.00  0.00     0.183 C 
BRANCH   5   6
HETATM    6  N   UNL     1       4.568   0.159  -0.320  1.00  0.00    -0.323 N 
HETATM    7  C   UNL     1       5.025  -1.092  -0.053  1.00  0.00     0.361 C 
HETATM    8  O   UNL     1       5.894  -1.311   0.778  1.00  0.00    -0.239 OA
HETATM    9  H   UNL     1       5.034   0.890   0.205  1.00  0.00     0.165 HD
BRANCH   7  10
HETATM   10  O   UNL     1       4.378  -2.043  -0.774  1.00  0.00    -0.304 OA
BRANCH  10  11
HETATM   11  C   UNL     1       4.844  -3.378  -0.537  1.00  0.00     0.176 C 
HETATM   12  C   UNL     1       4.057  -4.314  -1.434  1.00  0.00     0.034 C 
ENDBRANCH  10  11
ENDBRANCH   7  10
ENDBRANCH   5   6
BRANCH   5  13
HETATM   13  C   UNL     1       3.977   1.951  -1.945  1.00  0.00     0.076 C 
BRANCH  13  14
HETATM   14  C   UNL     1       5.371   2.098  -2.488  1.00  0.00    -0.028 A 
HETATM   15  C   UNL     1       6.080   1.179  -3.239  1.00  0.00     0.096 A 
HETATM   16  N   UNL     1       7.308   1.711  -3.529  1.00  0.00    -0.365 N 
HETATM   17  C   UNL     1       7.414   2.977  -3.007  1.00  0.00     0.042 A 
HETATM   18  H   UNL     1       8.033   1.249  -4.060  1.00  0.00     0.165 HD
HETATM   19  C   UNL     1       8.471   3.893  -3.070  1.00  0.00     0.030 A 
HETATM   20  C   UNL     1       6.213   3.251  -2.351  1.00  0.00    -0.002 A 
HETATM   21  C   UNL     1       8.295   5.131  -2.448  1.00  0.00     0.002 A 
HETATM   22  C   UNL     1       7.108   5.439  -1.788  1.00  0.00     0.001 A 
HETATM   23  C   UNL     1       6.062   4.510  -1.732  1.00  0.00     0.014 A 
ENDBRANCH  13  14
ENDBRANCH   5  13
ENDBRANCH   1   5
BRANCH   3  24
HETATM   24  C   UNL     1       0.578  -1.097   0.176  1.00  0.00     0.034 A 
HETATM   25  C   UNL     1      -0.534  -0.262   0.258  1.00  0.00     0.030 A 
HETATM   26  C   UNL     1      -1.745  -0.732   0.792  1.00  0.00     0.016 A 
HETATM   27  C   UNL     1      -1.873  -2.048   1.259  1.00  0.00    -0.000 A 
HETATM   28  C   UNL     1      -0.744  -2.877   1.171  1.00  0.00     0.016 A 
HETATM   29  C   UNL     1       0.465  -2.409   0.640  1.00  0.00     0.030 A 
BRANCH  27  30
HETATM   30  C   UNL     1      -3.123  -2.602   1.822  1.00  0.00     0.109 A 
HETATM   31  S   UNL     1      -4.488  -1.610   2.172  1.00  0.00    -0.067 SA
HETATM   32  C   UNL     1      -5.362  -2.976   2.737  1.00  0.00     0.036 A 
HETATM   33  C   UNL     1      -6.672  -3.045   3.242  1.00  0.00     0.028 A 
HETATM   34  C   UNL     1      -4.554  -4.105   2.626  1.00  0.00     0.075 A 
HETATM   35  C   UNL     1      -7.170  -4.291   3.654  1.00  0.00    -0.061 A 
HETATM   36  C   UNL     1      -8.578  -4.402   4.166  1.00  0.00     0.048 C 
HETATM   37  C   UNL     1      -6.375  -5.434   3.533  1.00  0.00     0.009 A 
HETATM   38  C   UNL     1      -5.072  -5.351   3.029  1.00  0.00     0.033 A 
HETATM   39  N   UNL     1      -3.289  -3.879   2.112  1.00  0.00    -0.240 NA
ENDBRANCH  27  30
ENDBRANCH   3  24
TORSDOF 8
