REMARK  26 active torsions:
REMARK  status: ('A' for Active; 'I' for Inactive)
REMARK    1  A    between atoms: C_2  and  C_3 
REMARK    2  A    between atoms: C_3  and  C_4 
REMARK    3  A    between atoms: C_4  and  C_5 
REMARK    4  A    between atoms: C_5  and  C_6 
REMARK    5  A    between atoms: C_6  and  C_7 
REMARK    6  A    between atoms: C_7  and  C_8 
REMARK    7  A    between atoms: C_8  and  C_9 
REMARK    8  A    between atoms: C_9  and  C_10 
REMARK    9  A    between atoms: C_10  and  C_11 
REMARK   10  A    between atoms: C_11  and  C_12 
REMARK   11  A    between atoms: C_12  and  C_13 
REMARK   12  A    between atoms: C_13  and  C_14 
REMARK   13  A    between atoms: C_14  and  C_15 
REMARK   14  A    between atoms: C_15  and  C_16 
REMARK   15  A    between atoms: C_16  and  C_17 
REMARK   16  A    between atoms: C_17  and  C_18 
REMARK   17  A    between atoms: C_18  and  N_19 
REMARK       I    between atoms: N_19  and  C_20 
REMARK   18  A    between atoms: C_20  and  C_22 
REMARK   19  A    between atoms: C_22  and  C_23 
REMARK   20  A    between atoms: C_22  and  N_35 
REMARK   21  A    between atoms: C_23  and  C_24 
REMARK   22  A    between atoms: C_24  and  C_25 
REMARK   23  A    between atoms: C_25  and  O_27 
REMARK   24  A    between atoms: O_27  and  C_28 
REMARK   25  A    between atoms: C_28  and  C_29 
REMARK       I    between atoms: N_35  and  C_36 
REMARK   26  A    between atoms: C_36  and  C_38 
ROOT
HETATM    1  C   UNL     1       7.732   2.272  -0.844  1.00  0.00     0.177 C 
ENDROOT
BRANCH   1   2
HETATM    2  C   UNL     1       6.520   3.067  -0.293  1.00  0.00     0.240 C 
HETATM    3  N   UNL     1       5.294   2.493  -0.575  1.00  0.00    -0.359 N 
HETATM    4  H   UNL     1       5.295   1.769  -1.294  1.00  0.00     0.162 HD
HETATM    5  O   UNL     1       6.629   4.159   0.260  1.00  0.00    -0.271 OA
BRANCH   3   6
HETATM    6  C   UNL     1       4.058   3.193  -0.305  1.00  0.00     0.122 C 
BRANCH   6   7
HETATM    7  C   UNL     1       2.871   2.236  -0.288  1.00  0.00     0.020 C 
BRANCH   7   8
HETATM    8  C   UNL     1       1.569   2.981   0.006  1.00  0.00     0.002 C 
BRANCH   8   9
HETATM    9  C   UNL     1       0.369   2.033   0.036  1.00  0.00     0.000 C 
BRANCH   9  10
HETATM   10  C   UNL     1      -0.924   2.793   0.334  1.00  0.00     0.000 C 
BRANCH  10  11
HETATM   11  C   UNL     1      -2.134   1.858   0.369  1.00  0.00     0.000 C 
BRANCH  11  12
HETATM   12  C   UNL     1      -3.419   2.633   0.667  1.00  0.00     0.000 C 
BRANCH  12  13
HETATM   13  C   UNL     1      -4.638   1.710   0.704  1.00  0.00     0.000 C 
BRANCH  13  14
HETATM   14  C   UNL     1      -5.916   2.499   0.996  1.00  0.00     0.000 C 
BRANCH  14  15
HETATM   15  C   UNL     1      -7.144   1.588   1.033  1.00  0.00     0.000 C 
BRANCH  15  16
HETATM   16  C   UNL     1      -8.416   2.389   1.319  1.00  0.00     0.000 C 
BRANCH  16  17
HETATM   17  C   UNL     1      -9.650   1.487   1.354  1.00  0.00     0.000 C 
BRANCH  17  18
HETATM   18  C   UNL     1     -10.918   2.296   1.634  1.00  0.00     0.000 C 
BRANCH  18  19
HETATM   19  C   UNL     1     -12.157   1.400   1.668  1.00  0.00     0.000 C 
BRANCH  19  20
HETATM   20  C   UNL     1     -13.423   2.214   1.944  1.00  0.00     0.000 C 
BRANCH  20  21
HETATM   21  C   UNL     1     -14.664   1.322   1.977  1.00  0.00    -0.000 C 
BRANCH  21  22
HETATM   22  C   UNL     1     -15.928   2.138   2.251  1.00  0.00    -0.005 C 
HETATM   23  C   UNL     1     -17.165   1.256   2.285  1.00  0.00     0.005 C 
ENDBRANCH  21  22
ENDBRANCH  20  21
ENDBRANCH  19  20
ENDBRANCH  18  19
ENDBRANCH  17  18
ENDBRANCH  16  17
ENDBRANCH  15  16
ENDBRANCH  14  15
ENDBRANCH  13  14
ENDBRANCH  12  13
ENDBRANCH  11  12
ENDBRANCH  10  11
ENDBRANCH   9  10
ENDBRANCH   8   9
ENDBRANCH   7   8
ENDBRANCH   6   7
ENDBRANCH   3   6
ENDBRANCH   1   2
BRANCH   1  24
HETATM   24  C   UNL     1       9.058   2.897  -0.397  1.00  0.00     0.044 C 
BRANCH  24  25
HETATM   25  C   UNL     1      10.262   2.252  -1.086  1.00  0.00     0.113 C 
BRANCH  25  26
HETATM   26  C   UNL     1      11.565   2.859  -0.623  1.00  0.00     0.259 C 
HETATM   27  O   UNL     1      11.678   3.750   0.206  1.00  0.00    -0.265 OA
BRANCH  26  28
HETATM   28  O   UNL     1      12.600   2.247  -1.258  1.00  0.00    -0.317 OA
BRANCH  28  29
HETATM   29  C   UNL     1      13.886   2.747  -0.876  1.00  0.00     0.217 C 
BRANCH  29  30
HETATM   30  C   UNL     1      14.950   1.940  -1.577  1.00  0.00    -0.034 A 
HETATM   31  C   UNL     1      15.923   2.571  -2.365  1.00  0.00     0.009 A 
HETATM   32  C   UNL     1      16.920   1.822  -2.994  1.00  0.00     0.001 A 
HETATM   33  C   UNL     1      16.957   0.437  -2.838  1.00  0.00     0.000 A 
HETATM   34  C   UNL     1      15.999  -0.201  -2.053  1.00  0.00     0.001 A 
HETATM   35  C   UNL     1      15.002   0.546  -1.424  1.00  0.00     0.009 A 
ENDBRANCH  29  30
ENDBRANCH  28  29
ENDBRANCH  26  28
ENDBRANCH  25  26
ENDBRANCH  24  25
ENDBRANCH   1  24
BRANCH   1  36
HETATM   36  N   UNL     1       7.661   0.868  -0.424  1.00  0.00    -0.344 N 
HETATM   37  C   UNL     1       6.928  -0.062  -1.129  1.00  0.00     0.252 C 
HETATM   38  O   UNL     1       6.280   0.231  -2.128  1.00  0.00    -0.268 OA
HETATM   39  H   UNL     1       7.848   0.676   0.552  1.00  0.00     0.163 HD
BRANCH  37  40
HETATM   40  C   UNL     1       6.891  -1.442  -0.571  1.00  0.00     0.032 A 
HETATM   41  C   UNL     1       7.925  -1.945   0.230  1.00  0.00     0.017 A 
HETATM   42  C   UNL     1       7.851  -3.248   0.728  1.00  0.00     0.001 A 
HETATM   43  C   UNL     1       6.752  -4.052   0.424  1.00  0.00     0.000 A 
HETATM   44  C   UNL     1       5.728  -3.561  -0.384  1.00  0.00     0.001 A 
HETATM   45  C   UNL     1       5.798  -2.260  -0.886  1.00  0.00     0.017 A 
ENDBRANCH  37  40
ENDBRANCH   1  36
TORSDOF 26
