REMARK  5 active torsions:
REMARK  status: ('A' for Active; 'I' for Inactive)
REMARK    1  A    between atoms: N_14  and  C_15 
REMARK    2  A    between atoms: C_15  and  C_16 
REMARK    3  A    between atoms: C_16  and  C_17 
REMARK       I    between atoms: C_17  and  N_19 
REMARK    4  A    between atoms: N_19  and  C_20 
REMARK    5  A    between atoms: C_20  and  C_21 
ROOT
HETATM    1  C   UNL     1       2.261   0.895  -0.904  1.00  0.00     0.152 C 
HETATM    2  N   UNL     1       3.401   0.826  -0.017  1.00  0.00    -0.358 N 
HETATM    3  C   UNL     1       3.897  -0.443   0.515  1.00  0.00     0.241 C 
HETATM    4  N   UNL     1       5.357  -0.287   0.536  1.00  0.00    -0.321 N 
HETATM    5  C   UNL     1       6.242  -1.402   0.182  1.00  0.00     0.133 C 
HETATM    6  C   UNL     1       5.808  -2.105  -1.112  1.00  0.00     0.061 C 
HETATM    7  C   UNL     1       4.383  -2.494  -0.959  1.00  0.00    -0.017 A 
HETATM    8  C   UNL     1       3.699  -3.658  -1.381  1.00  0.00    -0.001 A 
HETATM    9  C   UNL     1       4.064  -4.779  -2.154  1.00  0.00     0.014 A 
HETATM   10  C   UNL     1       3.155  -5.825  -2.328  1.00  0.00     0.001 A 
HETATM   11  C   UNL     1       1.903  -5.776  -1.727  1.00  0.00     0.002 A 
HETATM   12  C   UNL     1       1.521  -4.678  -0.949  1.00  0.00     0.030 A 
HETATM   13  C   UNL     1       2.428  -3.613  -0.800  1.00  0.00     0.045 A 
HETATM   14  N   UNL     1       2.330  -2.412  -0.105  1.00  0.00    -0.345 N 
HETATM   15  C   UNL     1       3.522  -1.720  -0.201  1.00  0.00     0.062 A 
HETATM   16  C   UNL     1       5.878   0.773   1.264  1.00  0.00     0.258 C 
HETATM   17  O   UNL     1       7.034   0.820   1.675  1.00  0.00    -0.267 OA
HETATM   18  C   UNL     1       4.955   1.912   1.493  1.00  0.00     0.058 A 
HETATM   19  C   UNL     1       5.346   2.974   2.318  1.00  0.00     0.019 A 
HETATM   20  C   UNL     1       4.510   4.075   2.463  1.00  0.00     0.001 A 
HETATM   21  C   UNL     1       3.300   4.116   1.774  1.00  0.00     0.002 A 
HETATM   22  C   UNL     1       2.919   3.053   0.944  1.00  0.00     0.030 A 
HETATM   23  C   UNL     1       3.731   1.920   0.795  1.00  0.00     0.047 A 
ENDROOT
BRANCH  14  24
HETATM   24  C   UNL     1       1.166  -2.021   0.682  1.00  0.00     0.138 C 
BRANCH  24  25
HETATM   25  C   UNL     1      -0.073  -1.744  -0.167  1.00  0.00     0.123 C 
BRANCH  25  26
HETATM   26  C   UNL     1      -1.184  -1.165   0.676  1.00  0.00     0.219 C 
HETATM   27  O   UNL     1      -1.052  -0.869   1.858  1.00  0.00    -0.274 OA
HETATM   28  N   UNL     1      -2.358  -1.000  -0.017  1.00  0.00    -0.355 N 
HETATM   29  H   UNL     1      -2.366  -1.082  -1.027  1.00  0.00     0.162 HD
BRANCH  28  30
HETATM   30  C   UNL     1      -3.504  -0.369   0.595  1.00  0.00     0.187 C 
BRANCH  30  31
HETATM   31  C   UNL     1      -4.695  -0.638  -0.244  1.00  0.00     0.070 A 
HETATM   32  O   UNL     1      -4.642  -0.209  -1.541  1.00  0.00    -0.325 OA
HETATM   33  C   UNL     1      -5.819  -0.557  -2.122  1.00  0.00     0.142 A 
HETATM   34  C   UNL     1      -6.628  -1.207  -1.220  1.00  0.00     0.027 A 
HETATM   35  C   UNL     1      -5.903  -1.261  -0.006  1.00  0.00     0.036 A 
ENDBRANCH  30  31
ENDBRANCH  28  30
ENDBRANCH  25  26
ENDBRANCH  24  25
ENDBRANCH  14  24
TORSDOF 5
